/*---------------------------------------------------------------------------*\
| =========                 |                                                 |
| \\      /  F ield         | OpenFOAM: The Open Source CFD Toolbox           |
|  \\    /   O peration     | Version:  2306                                  |
|   \\  /    A nd           | Website:  www.openfoam.com                      |
|    \\/     M anipulation  |                                                 |
\*---------------------------------------------------------------------------*/
Build  : a6e826bd55-20230630 OPENFOAM=2306 version=v2306
Arch   : "LSB;label=32;scalar=64"
Exec   : simpleFoam -parallel
Date   : Jul 28 2024
Time   : 20:13:38
Host   : kummi
PID    : 23930
I/O    : uncollated
Case   : /home/kummi/OpenFOAM/kummi-v2306/run/rod-bundles-project/test_cases/case_3x3_rod_bundle_6_million_K-Omega_wallFunc
nProcs : 8
Hosts  :
(
    (kummi 8)
)
Pstream initialized with:
    floatTransfer      : false
    nProcsSimpleSum    : 0
    nonBlockingExchange: 0 (tuning: 0)
    exchange algorithm : -1
    commsType          : nonBlocking
    polling iterations : 0
trapFpe: Floating point exception trapping enabled (FOAM_SIGFPE).
fileModificationChecking : Monitoring run-time modified files using timeStampMaster (fileModificationSkew 5, maxFileModificationPolls 20)
allowSystemOperations : Allowing user-supplied system call operations

// * * * * * * * * * * * * * * * * * * * * * * * * * * * * * * * * * * * * * //
Create time

Create mesh for time = 70


SIMPLE: convergence criteria
    field p	 tolerance 1e-16
    field U	 tolerance 1e-16
    field "(k|epsilon|omega|f|v2)"	 tolerance 1e-16

Reading field p

Reading field U

Reading/calculating face flux field phi

Selecting incompressible transport model Newtonian
Selecting turbulence model type RAS
Selecting RAS turbulence model kOmegaSST
Selecting patchDistMethod meshWave
kOmegaSSTCoeffs
{
    betaStar        0.09;
    alphaK1         0.85;
    alphaK2         1;
    alphaOmega1     0.5;
    alphaOmega2     0.856;
    gamma1          0.555556;
    gamma2          0.44;
    beta1           0.075;
    beta2           0.0828;
    a1              0.31;
    b1              1;
    c1              10;
    F3              false;
    decayControl    false;
    kInf            0;
    omegaInf        0;
}

No MRF models present

No finite volume options present

Starting time loop

Time = 71

smoothSolver:  Solving for Ux, Initial residual = 0.0266727, Final residual = 6.53962e-15, No Iterations 24
smoothSolver:  Solving for Uy, Initial residual = 0.00265872, Final residual = 4.4603e-15, No Iterations 22
smoothSolver:  Solving for Uz, Initial residual = 0.0263632, Final residual = 5.28486e-15, No Iterations 24
GAMG:  Solving for p, Initial residual = 0.0452619, Final residual = 6.25464e-11, No Iterations 1000
GAMG:  Solving for p, Initial residual = 0.00309564, Final residual = 1.01599e-11, No Iterations 1000
GAMG:  Solving for p, Initial residual = 0.000393563, Final residual = 3.47621e-12, No Iterations 1000
GAMG:  Solving for p, Initial residual = 9.21574e-05, Final residual = 1.74791e-12, No Iterations 1000
GAMG:  Solving for p, Initial residual = 2.68312e-05, Final residual = 1.27361e-12, No Iterations 1000
GAMG:  Solving for p, Initial residual = 8.94105e-06, Final residual = 1.13063e-12, No Iterations 1000
GAMG:  Solving for p, Initial residual = 3.39872e-06, Final residual = 1.09935e-12, No Iterations 1000
[kummi][[57749,1],1][../../../../../../opal/mca/btl/tcp/btl_tcp.c:559:mca_btl_tcp_recv_blocking] recv(17) failed: Connection reset by peer (104)
GAMG:  Solving for p, Initial residual = 1.47548e-06, Final residual = 1.10556e-12, No Iterations 1000
GAMG:  Solving for p, Initial residual = 7.21751e-07, Final residual = 1.09802e-12, No Iterations 1000
GAMG:  Solving for p, Initial residual = 3.8809e-07, Final residual = 1.11274e-12, No Iterations 1000
GAMG:  Solving for p, Initial residual = 2.23402e-07, Final residual = 1.11001e-12, No Iterations 1000
time step continuity errors : sum local = 7.42818e-15, global = 3.27386e-18, cumulative = 1.13103e-14
smoothSolver:  Solving for omega, Initial residual = 0.00126692, Final residual = 7.75171e-15, No Iterations 24
bounding omega, min: -1298.75 max: 3935.81 average: 7.34177
smoothSolver:  Solving for k, Initial residual = 0.0103945, Final residual = 8.5122e-15, No Iterations 25
bounding k, min: -0.00470271 max: 0.0123221 average: 0.00442298
ExecutionTime = 2332.33 s  ClockTime = 2333 s

Time = 72

smoothSolver:  Solving for Ux, Initial residual = 0.0262721, Final residual = 6.64264e-15, No Iterations 24
smoothSolver:  Solving for Uy, Initial residual = 0.00262324, Final residual = 5.40664e-15, No Iterations 22
smoothSolver:  Solving for Uz, Initial residual = 0.0259933, Final residual = 6.76312e-15, No Iterations 24
GAMG:  Solving for p, Initial residual = 0.0446207, Final residual = 3.15578e-11, No Iterations 1000
GAMG:  Solving for p, Initial residual = 0.00303318, Final residual = 1.86478e-12, No Iterations 1000
GAMG:  Solving for p, Initial residual = 0.000384826, Final residual = 1.334e-12, No Iterations 1000
GAMG:  Solving for p, Initial residual = 8.99808e-05, Final residual = 1.15106e-12, No Iterations 1000
GAMG:  Solving for p, Initial residual = 2.61704e-05, Final residual = 1.12521e-12, No Iterations 1000
GAMG:  Solving for p, Initial residual = 8.71853e-06, Final residual = 1.1227e-12, No Iterations 1000
GAMG:  Solving for p, Initial residual = 3.31581e-06, Final residual = 1.11558e-12, No Iterations 1000
GAMG:  Solving for p, Initial residual = 1.44133e-06, Final residual = 1.10031e-12, No Iterations 1000
GAMG:  Solving for p, Initial residual = 7.06293e-07, Final residual = 1.11801e-12, No Iterations 1000
GAMG:  Solving for p, Initial residual = 3.80466e-07, Final residual = 1.13198e-12, No Iterations 1000
GAMG:  Solving for p, Initial residual = 2.19355e-07, Final residual = 1.13033e-12, No Iterations 1000
time step continuity errors : sum local = 7.37006e-15, global = 4.50782e-18, cumulative = 1.13148e-14
smoothSolver:  Solving for omega, Initial residual = 0.0025396, Final residual = 9.33879e-15, No Iterations 23
bounding omega, min: -373.897 max: 1180.56 average: 7.35401
smoothSolver:  Solving for k, Initial residual = 0.0104455, Final residual = 8.24046e-15, No Iterations 25
bounding k, min: -0.00373303 max: 0.0122368 average: 0.00439201
ExecutionTime = 4618.71 s  ClockTime = 4619 s

Time = 73

smoothSolver:  Solving for Ux, Initial residual = 0.0259272, Final residual = 8.54722e-15, No Iterations 24
smoothSolver:  Solving for Uy, Initial residual = 0.00258899, Final residual = 6.19331e-15, No Iterations 22
smoothSolver:  Solving for Uz, Initial residual = 0.0256359, Final residual = 8.37197e-15, No Iterations 24
GAMG:  Solving for p, Initial residual = 0.0437947, Final residual = 2.12046e-11, No Iterations 1000
GAMG:  Solving for p, Initial residual = 0.00297681, Final residual = 3.05165e-12, No Iterations 1000
GAMG:  Solving for p, Initial residual = 0.000376401, Final residual = 1.44504e-12, No Iterations 1000
GAMG:  Solving for p, Initial residual = 8.79244e-05, Final residual = 1.1858e-12, No Iterations 1000
GAMG:  Solving for p, Initial residual = 2.55747e-05, Final residual = 1.15494e-12, No Iterations 1000
GAMG:  Solving for p, Initial residual = 8.54027e-06, Final residual = 1.128e-12, No Iterations 1000
GAMG:  Solving for p, Initial residual = 3.26278e-06, Final residual = 1.10745e-12, No Iterations 1000
GAMG:  Solving for p, Initial residual = 1.42689e-06, Final residual = 1.11456e-12, No Iterations 1000
GAMG:  Solving for p, Initial residual = 7.0363e-07, Final residual = 1.1299e-12, No Iterations 1000
GAMG:  Solving for p, Initial residual = 3.81107e-07, Final residual = 1.11557e-12, No Iterations 1000
GAMG:  Solving for p, Initial residual = 2.20644e-07, Final residual = 1.11154e-12, No Iterations 1000
time step continuity errors : sum local = 7.21888e-15, global = 2.96711e-18, cumulative = 1.13177e-14
smoothSolver:  Solving for omega, Initial residual = 0.00145002, Final residual = 5.48899e-15, No Iterations 24
bounding omega, min: -2555.06 max: 5290.62 average: 7.36768
smoothSolver:  Solving for k, Initial residual = 0.0104779, Final residual = 9.85371e-15, No Iterations 25
bounding k, min: -0.0033621 max: 0.01208 average: 0.00436094
ExecutionTime = 6920.04 s  ClockTime = 6921 s

Time = 74

smoothSolver:  Solving for Ux, Initial residual = 0.0255912, Final residual = 6.75359e-15, No Iterations 24
smoothSolver:  Solving for Uy, Initial residual = 0.00255259, Final residual = 5.59166e-15, No Iterations 22
smoothSolver:  Solving for Uz, Initial residual = 0.0253048, Final residual = 5.88073e-15, No Iterations 24
GAMG:  Solving for p, Initial residual = 0.0435763, Final residual = 3.34158e-11, No Iterations 1000
GAMG:  Solving for p, Initial residual = 0.00295831, Final residual = 4.59735e-12, No Iterations 1000
GAMG:  Solving for p, Initial residual = 0.000375052, Final residual = 1.91482e-12, No Iterations 1000
GAMG:  Solving for p, Initial residual = 8.7482e-05, Final residual = 1.33772e-12, No Iterations 1000
GAMG:  Solving for p, Initial residual = 2.53726e-05, Final residual = 1.17066e-12, No Iterations 1000
GAMG:  Solving for p, Initial residual = 8.44291e-06, Final residual = 1.1264e-12, No Iterations 1000
GAMG:  Solving for p, Initial residual = 3.21763e-06, Final residual = 1.13494e-12, No Iterations 1000
GAMG:  Solving for p, Initial residual = 1.40569e-06, Final residual = 1.12396e-12, No Iterations 1000
GAMG:  Solving for p, Initial residual = 6.93277e-07, Final residual = 1.13378e-12, No Iterations 1000
GAMG:  Solving for p, Initial residual = 3.75804e-07, Final residual = 1.15626e-12, No Iterations 1000
GAMG:  Solving for p, Initial residual = 2.17774e-07, Final residual = 1.12929e-12, No Iterations 1000
time step continuity errors : sum local = 7.1084e-15, global = 2.60552e-18, cumulative = 1.13204e-14
smoothSolver:  Solving for omega, Initial residual = 0.00436196, Final residual = 9.1821e-15, No Iterations 23
bounding omega, min: -793.2 max: 4761.08 average: 7.38033
smoothSolver:  Solving for k, Initial residual = 0.0105289, Final residual = 5.03066e-15, No Iterations 26
bounding k, min: -0.00385911 max: 0.0120219 average: 0.00432977
ExecutionTime = 9197.73 s  ClockTime = 9199 s

Time = 75

smoothSolver:  Solving for Ux, Initial residual = 0.025268, Final residual = 5.32726e-15, No Iterations 24
smoothSolver:  Solving for Uy, Initial residual = 0.00251841, Final residual = 5.08212e-15, No Iterations 22
smoothSolver:  Solving for Uz, Initial residual = 0.0249779, Final residual = 5.94187e-15, No Iterations 24
GAMG:  Solving for p, Initial residual = 0.0428069, Final residual = 2.03822e-11, No Iterations 1000
GAMG:  Solving for p, Initial residual = 0.00290591, Final residual = 2.26841e-12, No Iterations 1000
GAMG:  Solving for p, Initial residual = 0.000367734, Final residual = 1.27025e-12, No Iterations 1000
GAMG:  Solving for p, Initial residual = 8.55303e-05, Final residual = 1.13833e-12, No Iterations 1000
GAMG:  Solving for p, Initial residual = 2.47806e-05, Final residual = 1.14097e-12, No Iterations 1000
GAMG:  Solving for p, Initial residual = 8.2543e-06, Final residual = 1.11312e-12, No Iterations 1000
GAMG:  Solving for p, Initial residual = 3.15675e-06, Final residual = 1.11303e-12, No Iterations 1000
GAMG:  Solving for p, Initial residual = 1.38651e-06, Final residual = 1.12732e-12, No Iterations 1000
GAMG:  Solving for p, Initial residual = 6.87885e-07, Final residual = 1.1518e-12, No Iterations 1000
GAMG:  Solving for p, Initial residual = 3.74882e-07, Final residual = 1.11032e-12, No Iterations 1000
GAMG:  Solving for p, Initial residual = 2.18167e-07, Final residual = 1.11349e-12, No Iterations 1000
time step continuity errors : sum local = 7.03645e-15, global = -4.6151e-18, cumulative = 1.13157e-14
smoothSolver:  Solving for omega, Initial residual = 0.00295242, Final residual = 5.65431e-15, No Iterations 24
bounding omega, min: -211.124 max: 3003.69 average: 7.39294
smoothSolver:  Solving for k, Initial residual = 0.0105851, Final residual = 5.82624e-15, No Iterations 26
bounding k, min: -0.00325564 max: 0.0118804 average: 0.00429854
ExecutionTime = 11483 s  ClockTime = 11485 s

Time = 76

smoothSolver:  Solving for Ux, Initial residual = 0.0249565, Final residual = 5.01614e-15, No Iterations 24
smoothSolver:  Solving for Uy, Initial residual = 0.00248287, Final residual = 4.32668e-15, No Iterations 22
smoothSolver:  Solving for Uz, Initial residual = 0.0246827, Final residual = 5.08793e-15, No Iterations 24
GAMG:  Solving for p, Initial residual = 0.0423616, Final residual = 2.40114e-11, No Iterations 1000
GAMG:  Solving for p, Initial residual = 0.00286803, Final residual = 3.45672e-12, No Iterations 1000
GAMG:  Solving for p, Initial residual = 0.000363924, Final residual = 1.63886e-12, No Iterations 1000
GAMG:  Solving for p, Initial residual = 8.48339e-05, Final residual = 1.24936e-12, No Iterations 1000
GAMG:  Solving for p, Initial residual = 2.4624e-05, Final residual = 1.16676e-12, No Iterations 1000
GAMG:  Solving for p, Initial residual = 8.21167e-06, Final residual = 1.15845e-12, No Iterations 1000
GAMG:  Solving for p, Initial residual = 3.14112e-06, Final residual = 1.15235e-12, No Iterations 1000
GAMG:  Solving for p, Initial residual = 1.37836e-06, Final residual = 1.1384e-12, No Iterations 1000
[kummi][[57749,1],4][../../../../../../opal/mca/btl/tcp/btl_tcp.c:559:mca_btl_tcp_recv_blocking] recv(17) failed: Connection reset by peer (104)
GAMG:  Solving for p, Initial residual = 6.82637e-07, Final residual = 1.14118e-12, No Iterations 1000
GAMG:  Solving for p, Initial residual = 3.71221e-07, Final residual = 1.17366e-12, No Iterations 1000
GAMG:  Solving for p, Initial residual = 2.15588e-07, Final residual = 1.11496e-12, No Iterations 1000
time step continuity errors : sum local = 6.95309e-15, global = 1.35522e-18, cumulative = 1.13171e-14
smoothSolver:  Solving for omega, Initial residual = 0.00243636, Final residual = 9.11761e-15, No Iterations 23
bounding omega, min: -373.359 max: 1272.19 average: 7.4029
smoothSolver:  Solving for k, Initial residual = 0.0106333, Final residual = 9.66901e-15, No Iterations 25
bounding k, min: -0.00352104 max: 0.0117841 average: 0.00426728
ExecutionTime = 13773.9 s  ClockTime = 13776 s

Time = 77

smoothSolver:  Solving for Ux, Initial residual = 0.0246435, Final residual = 5.25731e-15, No Iterations 24
smoothSolver:  Solving for Uy, Initial residual = 0.00245056, Final residual = 4.71676e-15, No Iterations 22
smoothSolver:  Solving for Uz, Initial residual = 0.0243837, Final residual = 5.40202e-15, No Iterations 24
GAMG:  Solving for p, Initial residual = 0.0417199, Final residual = 2.6454e-11, No Iterations 1000
GAMG:  Solving for p, Initial residual = 0.00282202, Final residual = 5.30442e-12, No Iterations 1000
GAMG:  Solving for p, Initial residual = 0.000358363, Final residual = 2.0597e-12, No Iterations 1000
GAMG:  Solving for p, Initial residual = 8.33323e-05, Final residual = 1.37301e-12, No Iterations 1000
GAMG:  Solving for p, Initial residual = 2.41479e-05, Final residual = 1.17046e-12, No Iterations 1000
GAMG:  Solving for p, Initial residual = 8.03947e-06, Final residual = 1.1472e-12, No Iterations 1000
GAMG:  Solving for p, Initial residual = 3.06958e-06, Final residual = 1.13576e-12, No Iterations 1000
GAMG:  Solving for p, Initial residual = 1.344e-06, Final residual = 1.16415e-12, No Iterations 1000
GAMG:  Solving for p, Initial residual = 6.64204e-07, Final residual = 1.14848e-12, No Iterations 1000
GAMG:  Solving for p, Initial residual = 3.60581e-07, Final residual = 1.14149e-12, No Iterations 1000
GAMG:  Solving for p, Initial residual = 2.09172e-07, Final residual = 1.16473e-12, No Iterations 1000
time step continuity errors : sum local = 6.92868e-15, global = -5.22196e-18, cumulative = 1.13119e-14
smoothSolver:  Solving for omega, Initial residual = 0.00141383, Final residual = 6.1297e-15, No Iterations 24
bounding omega, min: -493.085 max: 8158.05 average: 7.41764
smoothSolver:  Solving for k, Initial residual = 0.0106709, Final residual = 6.07416e-15, No Iterations 26
bounding k, min: -0.0028188 max: 0.0116892 average: 0.00423602
ExecutionTime = 15966.7 s  ClockTime = 15969 s

Time = 78

smoothSolver:  Solving for Ux, Initial residual = 0.0243487, Final residual = 5.2361e-15, No Iterations 24
smoothSolver:  Solving for Uy, Initial residual = 0.00241494, Final residual = 4.60474e-15, No Iterations 22
smoothSolver:  Solving for Uz, Initial residual = 0.0240979, Final residual = 4.40959e-15, No Iterations 24
GAMG:  Solving for p, Initial residual = 0.0413513, Final residual = 3.39062e-11, No Iterations 1000
GAMG:  Solving for p, Initial residual = 0.00279531, Final residual = 4.83424e-12, No Iterations 1000
GAMG:  Solving for p, Initial residual = 0.000355558, Final residual = 1.94566e-12, No Iterations 1000
GAMG:  Solving for p, Initial residual = 8.27393e-05, Final residual = 1.35936e-12, No Iterations 1000
GAMG:  Solving for p, Initial residual = 2.39733e-05, Final residual = 1.1848e-12, No Iterations 1000
GAMG:  Solving for p, Initial residual = 7.98722e-06, Final residual = 1.15277e-12, No Iterations 1000
GAMG:  Solving for p, Initial residual = 3.05554e-06, Final residual = 1.17804e-12, No Iterations 1000
GAMG:  Solving for p, Initial residual = 1.34202e-06, Final residual = 1.1731e-12, No Iterations 1000
GAMG:  Solving for p, Initial residual = 6.65613e-07, Final residual = 1.14419e-12, No Iterations 1000
GAMG:  Solving for p, Initial residual = 3.6255e-07, Final residual = 1.12949e-12, No Iterations 1000
GAMG:  Solving for p, Initial residual = 2.10884e-07, Final residual = 1.16091e-12, No Iterations 1000
time step continuity errors : sum local = 6.84642e-15, global = -1.14725e-17, cumulative = 1.13004e-14
smoothSolver:  Solving for omega, Initial residual = 0.00699429, Final residual = 8.56822e-15, No Iterations 23
bounding omega, min: -198.999 max: 3398.84 average: 7.42682
smoothSolver:  Solving for k, Initial residual = 0.0107147, Final residual = 6.85071e-15, No Iterations 26
bounding k, min: -0.00451824 max: 0.0115476 average: 0.00420476
ExecutionTime = 18156.2 s  ClockTime = 18159 s

Time = 79

smoothSolver:  Solving for Ux, Initial residual = 0.0240202, Final residual = 7.73536e-15, No Iterations 24
smoothSolver:  Solving for Uy, Initial residual = 0.00237814, Final residual = 4.67289e-15, No Iterations 22
smoothSolver:  Solving for Uz, Initial residual = 0.0237839, Final residual = 4.96555e-15, No Iterations 24
GAMG:  Solving for p, Initial residual = 0.0408741, Final residual = 2.02589e-11, No Iterations 1000
GAMG:  Solving for p, Initial residual = 0.00275809, Final residual = 3.129e-12, No Iterations 1000
GAMG:  Solving for p, Initial residual = 0.000351483, Final residual = 1.60355e-12, No Iterations 1000
GAMG:  Solving for p, Initial residual = 8.17956e-05, Final residual = 1.27156e-12, No Iterations 1000
GAMG:  Solving for p, Initial residual = 2.37067e-05, Final residual = 1.16992e-12, No Iterations 1000
GAMG:  Solving for p, Initial residual = 7.89534e-06, Final residual = 1.16962e-12, No Iterations 1000
GAMG:  Solving for p, Initial residual = 3.01841e-06, Final residual = 1.1683e-12, No Iterations 1000
GAMG:  Solving for p, Initial residual = 1.32438e-06, Final residual = 1.14505e-12, No Iterations 1000
GAMG:  Solving for p, Initial residual = 6.56037e-07, Final residual = 1.14443e-12, No Iterations 1000
GAMG:  Solving for p, Initial residual = 3.56888e-07, Final residual = 1.15626e-12, No Iterations 1000
GAMG:  Solving for p, Initial residual = 2.07341e-07, Final residual = 1.14067e-12, No Iterations 1000
time step continuity errors : sum local = 6.70565e-15, global = 2.38569e-18, cumulative = 1.13028e-14
smoothSolver:  Solving for omega, Initial residual = 0.00269521, Final residual = 8.94757e-15, No Iterations 23
bounding omega, min: -1477.35 max: 7567.15 average: 7.44367
smoothSolver:  Solving for k, Initial residual = 0.0107685, Final residual = 6.87834e-15, No Iterations 26
bounding k, min: -0.00338042 max: 0.0114288 average: 0.00417353
ExecutionTime = 20344 s  ClockTime = 20347 s

Time = 80

smoothSolver:  Solving for Ux, Initial residual = 0.023732, Final residual = 5.74577e-15, No Iterations 24
smoothSolver:  Solving for Uy, Initial residual = 0.00234637, Final residual = 9.9555e-15, No Iterations 21
smoothSolver:  Solving for Uz, Initial residual = 0.0235211, Final residual = 6.48468e-15, No Iterations 24
GAMG:  Solving for p, Initial residual = 0.0404005, Final residual = 1.67343e-11, No Iterations 1000
GAMG:  Solving for p, Initial residual = 0.00271532, Final residual = 3.0739e-12, No Iterations 1000
GAMG:  Solving for p, Initial residual = 0.000346508, Final residual = 1.52992e-12, No Iterations 1000
GAMG:  Solving for p, Initial residual = 8.05896e-05, Final residual = 1.24474e-12, No Iterations 1000
GAMG:  Solving for p, Initial residual = 2.3331e-05, Final residual = 1.15504e-12, No Iterations 1000
GAMG:  Solving for p, Initial residual = 7.76818e-06, Final residual = 1.16585e-12, No Iterations 1000
GAMG:  Solving for p, Initial residual = 2.97314e-06, Final residual = 1.15681e-12, No Iterations 1000
GAMG:  Solving for p, Initial residual = 1.30762e-06, Final residual = 1.16393e-12, No Iterations 1000
GAMG:  Solving for p, Initial residual = 6.49678e-07, Final residual = 1.16415e-12, No Iterations 1000
GAMG:  Solving for p, Initial residual = 3.54437e-07, Final residual = 1.15474e-12, No Iterations 1000
GAMG:  Solving for p, Initial residual = 2.06401e-07, Final residual = 1.20521e-12, No Iterations 1000
time step continuity errors : sum local = 6.79663e-15, global = 1.18451e-17, cumulative = 1.13146e-14
smoothSolver:  Solving for omega, Initial residual = 0.0131505, Final residual = 6.78916e-15, No Iterations 24
bounding omega, min: -129.869 max: 2626.2 average: 7.45018
smoothSolver:  Solving for k, Initial residual = 0.0108092, Final residual = 9.92116e-15, No Iterations 26
bounding k, min: -0.0036511 max: 0.0112684 average: 0.00414238
ExecutionTime = 22538.8 s  ClockTime = 22542 s

Time = 81

smoothSolver:  Solving for Ux, Initial residual = 0.0234486, Final residual = 4.85381e-15, No Iterations 24
smoothSolver:  Solving for Uy, Initial residual = 0.00231032, Final residual = 8.71855e-15, No Iterations 21
smoothSolver:  Solving for Uz, Initial residual = 0.0232292, Final residual = 4.62827e-15, No Iterations 24
GAMG:  Solving for p, Initial residual = 0.0399338, Final residual = 3.69647e-11, No Iterations 1000
GAMG:  Solving for p, Initial residual = 0.00266703, Final residual = 5.15214e-12, No Iterations 1000
GAMG:  Solving for p, Initial residual = 0.000340084, Final residual = 2.10184e-12, No Iterations 1000
GAMG:  Solving for p, Initial residual = 7.91015e-05, Final residual = 1.39207e-12, No Iterations 1000
GAMG:  Solving for p, Initial residual = 2.28905e-05, Final residual = 1.21055e-12, No Iterations 1000
GAMG:  Solving for p, Initial residual = 7.62031e-06, Final residual = 1.14273e-12, No Iterations 1000
GAMG:  Solving for p, Initial residual = 2.9154e-06, Final residual = 1.16733e-12, No Iterations 1000
GAMG:  Solving for p, Initial residual = 1.28144e-06, Final residual = 1.1588e-12, No Iterations 1000
GAMG:  Solving for p, Initial residual = 6.36197e-07, Final residual = 1.15163e-12, No Iterations 1000
GAMG:  Solving for p, Initial residual = 3.46859e-07, Final residual = 1.17247e-12, No Iterations 1000
GAMG:  Solving for p, Initial residual = 2.01892e-07, Final residual = 1.14478e-12, No Iterations 1000
time step continuity errors : sum local = 6.55462e-15, global = -3.63639e-19, cumulative = 1.13143e-14
smoothSolver:  Solving for omega, Initial residual = 0.00254691, Final residual = 9.28017e-15, No Iterations 23
bounding omega, min: -1479.99 max: 33621.7 average: 7.4673
smoothSolver:  Solving for k, Initial residual = 0.0108194, Final residual = 7.0759e-15, No Iterations 26
bounding k, min: -0.00472228 max: 0.0112011 average: 0.00411131
ExecutionTime = 24729.3 s  ClockTime = 24732 s

Time = 82

smoothSolver:  Solving for Ux, Initial residual = 0.0231618, Final residual = 5.25338e-15, No Iterations 24
smoothSolver:  Solving for Uy, Initial residual = 0.00227615, Final residual = 8.37404e-15, No Iterations 21
smoothSolver:  Solving for Uz, Initial residual = 0.0229536, Final residual = 4.24428e-15, No Iterations 24
GAMG:  Solving for p, Initial residual = 0.0396015, Final residual = 2.86165e-11, No Iterations 1000
GAMG:  Solving for p, Initial residual = 0.0026329, Final residual = 2.94945e-12, No Iterations 1000
GAMG:  Solving for p, Initial residual = 0.000336055, Final residual = 1.54235e-12, No Iterations 1000
GAMG:  Solving for p, Initial residual = 7.81843e-05, Final residual = 1.22812e-12, No Iterations 1000
GAMG:  Solving for p, Initial residual = 2.26519e-05, Final residual = 1.15915e-12, No Iterations 1000
GAMG:  Solving for p, Initial residual = 7.55425e-06, Final residual = 1.16718e-12, No Iterations 1000
GAMG:  Solving for p, Initial residual = 2.898e-06, Final residual = 1.16725e-12, No Iterations 1000
GAMG:  Solving for p, Initial residual = 1.27822e-06, Final residual = 1.20115e-12, No Iterations 1000
GAMG:  Solving for p, Initial residual = 6.36937e-07, Final residual = 1.17099e-12, No Iterations 1000
GAMG:  Solving for p, Initial residual = 3.48411e-07, Final residual = 1.18619e-12, No Iterations 1000
GAMG:  Solving for p, Initial residual = 2.03343e-07, Final residual = 1.16682e-12, No Iterations 1000
time step continuity errors : sum local = 6.46511e-15, global = 3.56662e-18, cumulative = 1.13178e-14
smoothSolver:  Solving for omega, Initial residual = 0.0489523, Final residual = 8.81493e-15, No Iterations 23
bounding omega, min: -88.8869 max: 55401.5 average: 7.48592
smoothSolver:  Solving for k, Initial residual = 0.0108778, Final residual = 9.82601e-15, No Iterations 25
bounding k, min: -0.00313579 max: 0.0109816 average: 0.00408035
ExecutionTime = 26920.3 s  ClockTime = 26924 s

Time = 83

smoothSolver:  Solving for Ux, Initial residual = 0.0229039, Final residual = 5.8827e-15, No Iterations 24
smoothSolver:  Solving for Uy, Initial residual = 0.00224339, Final residual = 4.3855e-15, No Iterations 22
smoothSolver:  Solving for Uz, Initial residual = 0.0226935, Final residual = 5.10648e-15, No Iterations 24
GAMG:  Solving for p, Initial residual = 0.0390842, Final residual = 3.02035e-11, No Iterations 1000
GAMG:  Solving for p, Initial residual = 0.00258462, Final residual = 3.86816e-12, No Iterations 1000
GAMG:  Solving for p, Initial residual = 0.000329661, Final residual = 1.66923e-12, No Iterations 1000
GAMG:  Solving for p, Initial residual = 7.6774e-05, Final residual = 1.28813e-12, No Iterations 1000
GAMG:  Solving for p, Initial residual = 2.22406e-05, Final residual = 1.18112e-12, No Iterations 1000
GAMG:  Solving for p, Initial residual = 7.40462e-06, Final residual = 1.19717e-12, No Iterations 1000
GAMG:  Solving for p, Initial residual = 2.83239e-06, Final residual = 1.14842e-12, No Iterations 1000
GAMG:  Solving for p, Initial residual = 1.24486e-06, Final residual = 1.15603e-12, No Iterations 1000
GAMG:  Solving for p, Initial residual = 6.18051e-07, Final residual = 1.17941e-12, No Iterations 1000
GAMG:  Solving for p, Initial residual = 3.36985e-07, Final residual = 1.1698e-12, No Iterations 1000
GAMG:  Solving for p, Initial residual = 1.96169e-07, Final residual = 1.16557e-12, No Iterations 1000
time step continuity errors : sum local = 6.41781e-15, global = 8.36759e-18, cumulative = 1.13262e-14
smoothSolver:  Solving for omega, Initial residual = 0.137049, Final residual = 9.9702e-15, No Iterations 23
bounding omega, min: -169.721 max: 16620.8 average: 7.48418
smoothSolver:  Solving for k, Initial residual = 0.0108913, Final residual = 5.84394e-15, No Iterations 26
bounding k, min: -0.00372241 max: 0.0109485 average: 0.00404954
ExecutionTime = 29122 s  ClockTime = 29126 s

Time = 84

smoothSolver:  Solving for Ux, Initial residual = 0.0226159, Final residual = 5.44987e-15, No Iterations 24
smoothSolver:  Solving for Uy, Initial residual = 0.00220795, Final residual = 9.21396e-15, No Iterations 21
smoothSolver:  Solving for Uz, Initial residual = 0.0224349, Final residual = 4.99755e-15, No Iterations 24
GAMG:  Solving for p, Initial residual = 0.0390756, Final residual = 2.51028e-11, No Iterations 1000
GAMG:  Solving for p, Initial residual = 0.00257176, Final residual = 1.46884e-12, No Iterations 1000
GAMG:  Solving for p, Initial residual = 0.000328325, Final residual = 1.2909e-12, No Iterations 1000
GAMG:  Solving for p, Initial residual = 7.64952e-05, Final residual = 1.17058e-12, No Iterations 1000
GAMG:  Solving for p, Initial residual = 2.2195e-05, Final residual = 1.21441e-12, No Iterations 1000
GAMG:  Solving for p, Initial residual = 7.40796e-06, Final residual = 1.18427e-12, No Iterations 1000
GAMG:  Solving for p, Initial residual = 2.84197e-06, Final residual = 1.17838e-12, No Iterations 1000
GAMG:  Solving for p, Initial residual = 1.25282e-06, Final residual = 1.1699e-12, No Iterations 1000
GAMG:  Solving for p, Initial residual = 6.23691e-07, Final residual = 1.17801e-12, No Iterations 1000
GAMG:  Solving for p, Initial residual = 3.40837e-07, Final residual = 1.1756e-12, No Iterations 1000
GAMG:  Solving for p, Initial residual = 1.98808e-07, Final residual = 1.17224e-12, No Iterations 1000
time step continuity errors : sum local = 6.32145e-15, global = 3.38881e-18, cumulative = 1.13296e-14
smoothSolver:  Solving for omega, Initial residual = 0.017123, Final residual = 5.41897e-15, No Iterations 24
bounding omega, min: -5820.74 max: 37119.3 average: 7.50642
smoothSolver:  Solving for k, Initial residual = 0.0109336, Final residual = 8.50248e-15, No Iterations 25
bounding k, min: -0.0042668 max: 0.0107982 average: 0.00401886
ExecutionTime = 31313.1 s  ClockTime = 31317 s

Time = 85

smoothSolver:  Solving for Ux, Initial residual = 0.0223581, Final residual = 5.60066e-15, No Iterations 24
smoothSolver:  Solving for Uy, Initial residual = 0.00217439, Final residual = 9.65792e-15, No Iterations 21
smoothSolver:  Solving for Uz, Initial residual = 0.0221761, Final residual = 4.60523e-15, No Iterations 24
GAMG:  Solving for p, Initial residual = 0.0383329, Final residual = 2.34475e-11, No Iterations 1000
GAMG:  Solving for p, Initial residual = 0.00251441, Final residual = 3.45773e-12, No Iterations 1000
GAMG:  Solving for p, Initial residual = 0.000321687, Final residual = 1.63841e-12, No Iterations 1000
GAMG:  Solving for p, Initial residual = 7.4912e-05, Final residual = 1.29973e-12, No Iterations 1000
GAMG:  Solving for p, Initial residual = 2.17008e-05, Final residual = 1.17158e-12, No Iterations 1000
GAMG:  Solving for p, Initial residual = 7.22632e-06, Final residual = 1.18855e-12, No Iterations 1000
GAMG:  Solving for p, Initial residual = 2.76583e-06, Final residual = 1.16647e-12, No Iterations 1000
GAMG:  Solving for p, Initial residual = 1.21673e-06, Final residual = 1.16799e-12, No Iterations 1000
GAMG:  Solving for p, Initial residual = 6.04685e-07, Final residual = 1.19663e-12, No Iterations 1000
GAMG:  Solving for p, Initial residual = 3.29943e-07, Final residual = 1.16589e-12, No Iterations 1000
GAMG:  Solving for p, Initial residual = 1.92165e-07, Final residual = 1.16713e-12, No Iterations 1000
time step continuity errors : sum local = 6.23609e-15, global = -3.14174e-18, cumulative = 1.13264e-14
smoothSolver:  Solving for omega, Initial residual = 0.0903197, Final residual = 6.53937e-15, No Iterations 23
bounding omega, min: -325.002 max: 11136.2 average: 7.5073
smoothSolver:  Solving for k, Initial residual = 0.010952, Final residual = 6.701e-15, No Iterations 26
bounding k, min: -0.00301181 max: 0.0106009 average: 0.00398838
ExecutionTime = 33502.3 s  ClockTime = 33507 s

Time = 86

smoothSolver:  Solving for Ux, Initial residual = 0.0221203, Final residual = 4.88464e-15, No Iterations 24
smoothSolver:  Solving for Uy, Initial residual = 0.00214234, Final residual = 8.86943e-15, No Iterations 21
smoothSolver:  Solving for Uz, Initial residual = 0.0219514, Final residual = 3.98225e-15, No Iterations 24
GAMG:  Solving for p, Initial residual = 0.0384827, Final residual = 4.84859e-11, No Iterations 1000
GAMG:  Solving for p, Initial residual = 0.00251343, Final residual = 2.57003e-12, No Iterations 1000
GAMG:  Solving for p, Initial residual = 0.000320775, Final residual = 1.39969e-12, No Iterations 1000
GAMG:  Solving for p, Initial residual = 7.48174e-05, Final residual = 1.21233e-12, No Iterations 1000
GAMG:  Solving for p, Initial residual = 2.1702e-05, Final residual = 1.1845e-12, No Iterations 1000
GAMG:  Solving for p, Initial residual = 7.24984e-06, Final residual = 1.19769e-12, No Iterations 1000
GAMG:  Solving for p, Initial residual = 2.78929e-06, Final residual = 1.18669e-12, No Iterations 1000
GAMG:  Solving for p, Initial residual = 1.23508e-06, Final residual = 1.17885e-12, No Iterations 1000
GAMG:  Solving for p, Initial residual = 6.17859e-07, Final residual = 1.17703e-12, No Iterations 1000
GAMG:  Solving for p, Initial residual = 3.39053e-07, Final residual = 1.19511e-12, No Iterations 1000
GAMG:  Solving for p, Initial residual = 1.98343e-07, Final residual = 1.18787e-12, No Iterations 1000
time step continuity errors : sum local = 6.19132e-15, global = 1.57604e-18, cumulative = 1.1328e-14
smoothSolver:  Solving for omega, Initial residual = 0.0142376, Final residual = 8.44396e-15, No Iterations 23
bounding omega, min: -986.773 max: 5500.82 average: 7.51311
smoothSolver:  Solving for k, Initial residual = 0.0109633, Final residual = 5.09747e-15, No Iterations 26
bounding k, min: -0.00358405 max: 0.0104711 average: 0.00395808
ExecutionTime = 35692.5 s  ClockTime = 35697 s

Time = 87

smoothSolver:  Solving for Ux, Initial residual = 0.0218608, Final residual = 5.19015e-15, No Iterations 24
smoothSolver:  Solving for Uy, Initial residual = 0.00210823, Final residual = 9.59722e-15, No Iterations 21
smoothSolver:  Solving for Uz, Initial residual = 0.0217069, Final residual = 7.09464e-15, No Iterations 24
GAMG:  Solving for p, Initial residual = 0.0380549, Final residual = 4.31614e-11, No Iterations 1000
GAMG:  Solving for p, Initial residual = 0.00247931, Final residual = 3.91502e-12, No Iterations 1000
GAMG:  Solving for p, Initial residual = 0.000316913, Final residual = 1.65559e-12, No Iterations 1000
GAMG:  Solving for p, Initial residual = 7.37117e-05, Final residual = 1.28854e-12, No Iterations 1000
GAMG:  Solving for p, Initial residual = 2.13455e-05, Final residual = 1.1995e-12, No Iterations 1000
GAMG:  Solving for p, Initial residual = 7.12432e-06, Final residual = 1.20185e-12, No Iterations 1000
GAMG:  Solving for p, Initial residual = 2.7407e-06, Final residual = 1.19257e-12, No Iterations 1000
GAMG:  Solving for p, Initial residual = 1.21389e-06, Final residual = 1.19848e-12, No Iterations 1000
GAMG:  Solving for p, Initial residual = 6.07439e-07, Final residual = 1.19443e-12, No Iterations 1000
GAMG:  Solving for p, Initial residual = 3.33375e-07, Final residual = 1.20646e-12, No Iterations 1000
GAMG:  Solving for p, Initial residual = 1.94981e-07, Final residual = 1.20967e-12, No Iterations 1000
time step continuity errors : sum local = 6.15891e-15, global = 6.6459e-18, cumulative = 1.13347e-14
smoothSolver:  Solving for omega, Initial residual = 0.00410805, Final residual = 5.41655e-15, No Iterations 24
bounding omega, min: -166.047 max: 1650.29 average: 7.52134
smoothSolver:  Solving for k, Initial residual = 0.0109851, Final residual = 8.61723e-15, No Iterations 26
bounding k, min: -0.00391591 max: 0.0103676 average: 0.003928
ExecutionTime = 37886.3 s  ClockTime = 37891 s

Time = 88

smoothSolver:  Solving for Ux, Initial residual = 0.0216295, Final residual = 5.95916e-15, No Iterations 24
smoothSolver:  Solving for Uy, Initial residual = 0.00207553, Final residual = 4.48655e-15, No Iterations 22
smoothSolver:  Solving for Uz, Initial residual = 0.0214772, Final residual = 5.87565e-15, No Iterations 24
GAMG:  Solving for p, Initial residual = 0.0375549, Final residual = 4.12688e-11, No Iterations 1000
GAMG:  Solving for p, Initial residual = 0.00243336, Final residual = 2.89885e-12, No Iterations 1000
GAMG:  Solving for p, Initial residual = 0.000310876, Final residual = 1.67879e-12, No Iterations 1000
GAMG:  Solving for p, Initial residual = 7.22819e-05, Final residual = 1.30043e-12, No Iterations 1000
GAMG:  Solving for p, Initial residual = 2.09251e-05, Final residual = 1.20899e-12, No Iterations 1000
GAMG:  Solving for p, Initial residual = 6.98931e-06, Final residual = 1.20243e-12, No Iterations 1000
GAMG:  Solving for p, Initial residual = 2.69444e-06, Final residual = 1.17713e-12, No Iterations 1000
GAMG:  Solving for p, Initial residual = 1.19689e-06, Final residual = 1.21028e-12, No Iterations 1000
GAMG:  Solving for p, Initial residual = 6.00763e-07, Final residual = 1.18071e-12, No Iterations 1000
GAMG:  Solving for p, Initial residual = 3.30596e-07, Final residual = 1.17801e-12, No Iterations 1000
GAMG:  Solving for p, Initial residual = 1.93766e-07, Final residual = 1.18736e-12, No Iterations 1000
time step continuity errors : sum local = 6.05884e-15, global = -4.5694e-18, cumulative = 1.13301e-14
smoothSolver:  Solving for omega, Initial residual = 0.00163319, Final residual = 6.99946e-15, No Iterations 23
bounding omega, min: -217.091 max: 5706.82 average: 7.5321
smoothSolver:  Solving for k, Initial residual = 0.010998, Final residual = 6.42386e-15, No Iterations 26
bounding k, min: -0.0043668 max: 0.010257 average: 0.00389814
ExecutionTime = 40075.3 s  ClockTime = 40080 s

Time = 89

smoothSolver:  Solving for Ux, Initial residual = 0.0213726, Final residual = 4.18056e-15, No Iterations 24
smoothSolver:  Solving for Uy, Initial residual = 0.00204219, Final residual = 8.86502e-15, No Iterations 21
smoothSolver:  Solving for Uz, Initial residual = 0.0212355, Final residual = 5.84299e-15, No Iterations 24
GAMG:  Solving for p, Initial residual = 0.0375207, Final residual = 2.45792e-11, No Iterations 1000
GAMG:  Solving for p, Initial residual = 0.0024269, Final residual = 3.73538e-12, No Iterations 1000
GAMG:  Solving for p, Initial residual = 0.000310391, Final residual = 1.75818e-12, No Iterations 1000
GAMG:  Solving for p, Initial residual = 7.20714e-05, Final residual = 1.37315e-12, No Iterations 1000
GAMG:  Solving for p, Initial residual = 2.08078e-05, Final residual = 1.236e-12, No Iterations 1000
GAMG:  Solving for p, Initial residual = 6.93273e-06, Final residual = 1.2061e-12, No Iterations 1000
GAMG:  Solving for p, Initial residual = 2.66565e-06, Final residual = 1.20795e-12, No Iterations 1000
GAMG:  Solving for p, Initial residual = 1.1813e-06, Final residual = 1.201e-12, No Iterations 1000
GAMG:  Solving for p, Initial residual = 5.91749e-07, Final residual = 1.19731e-12, No Iterations 1000
GAMG:  Solving for p, Initial residual = 3.25144e-07, Final residual = 1.20474e-12, No Iterations 1000
GAMG:  Solving for p, Initial residual = 1.90353e-07, Final residual = 1.20571e-12, No Iterations 1000
time step continuity errors : sum local = 5.98079e-15, global = -3.48307e-18, cumulative = 1.13266e-14
smoothSolver:  Solving for omega, Initial residual = 0.00468161, Final residual = 9.4009e-15, No Iterations 23
bounding omega, min: -581.058 max: 23936.1 average: 7.54502
smoothSolver:  Solving for k, Initial residual = 0.0110287, Final residual = 9.20148e-15, No Iterations 25
bounding k, min: -0.0033863 max: 0.0101638 average: 0.00386858
ExecutionTime = 42265.7 s  ClockTime = 42271 s

Time = 90

smoothSolver:  Solving for Ux, Initial residual = 0.0211378, Final residual = 4.96418e-15, No Iterations 24
smoothSolver:  Solving for Uy, Initial residual = 0.00200898, Final residual = 9.05147e-15, No Iterations 21
smoothSolver:  Solving for Uz, Initial residual = 0.0209953, Final residual = 4.92511e-15, No Iterations 24
GAMG:  Solving for p, Initial residual = 0.0372072, Final residual = 2.96068e-11, No Iterations 1000
GAMG:  Solving for p, Initial residual = 0.00239492, Final residual = 3.082e-12, No Iterations 1000
GAMG:  Solving for p, Initial residual = 0.000307007, Final residual = 1.5987e-12, No Iterations 1000
GAMG:  Solving for p, Initial residual = 7.15717e-05, Final residual = 1.31e-12, No Iterations 1000
GAMG:  Solving for p, Initial residual = 2.07923e-05, Final residual = 1.20452e-12, No Iterations 1000
GAMG:  Solving for p, Initial residual = 6.98364e-06, Final residual = 1.19384e-12, No Iterations 1000
GAMG:  Solving for p, Initial residual = 2.71078e-06, Final residual = 1.27269e-12, No Iterations 1000
GAMG:  Solving for p, Initial residual = 1.21187e-06, Final residual = 1.22259e-12, No Iterations 1000
GAMG:  Solving for p, Initial residual = 6.10869e-07, Final residual = 1.22452e-12, No Iterations 1000
GAMG:  Solving for p, Initial residual = 3.36774e-07, Final residual = 1.20267e-12, No Iterations 1000
GAMG:  Solving for p, Initial residual = 1.9737e-07, Final residual = 1.21703e-12, No Iterations 1000
time step continuity errors : sum local = 5.93631e-15, global = -1.46172e-18, cumulative = 1.13252e-14
smoothSolver:  Solving for omega, Initial residual = 0.0326553, Final residual = 7.69093e-15, No Iterations 23
bounding omega, min: -626.939 max: 13112.1 average: 7.55281
smoothSolver:  Solving for k, Initial residual = 0.0110138, Final residual = 8.41794e-15, No Iterations 26
bounding k, min: -0.00431126 max: 0.0100489 average: 0.00383929
ExecutionTime = 44455.2 s  ClockTime = 44461 s

Time = 91

smoothSolver:  Solving for Ux, Initial residual = 0.0208944, Final residual = 5.5372e-15, No Iterations 24
smoothSolver:  Solving for Uy, Initial residual = 0.0019788, Final residual = 9.05253e-15, No Iterations 21
smoothSolver:  Solving for Uz, Initial residual = 0.0207752, Final residual = 6.19061e-15, No Iterations 24
GAMG:  Solving for p, Initial residual = 0.0366897, Final residual = 1.2619e-11, No Iterations 1000
GAMG:  Solving for p, Initial residual = 0.00235512, Final residual = 1.86843e-12, No Iterations 1000
GAMG:  Solving for p, Initial residual = 0.000302838, Final residual = 1.25061e-12, No Iterations 1000
GAMG:  Solving for p, Initial residual = 7.04943e-05, Final residual = 1.23799e-12, No Iterations 1000
GAMG:  Solving for p, Initial residual = 2.04126e-05, Final residual = 1.2268e-12, No Iterations 1000
GAMG:  Solving for p, Initial residual = 6.8211e-06, Final residual = 1.2142e-12, No Iterations 1000
GAMG:  Solving for p, Initial residual = 2.6318e-06, Final residual = 1.23181e-12, No Iterations 1000
GAMG:  Solving for p, Initial residual = 1.16982e-06, Final residual = 1.20144e-12, No Iterations 1000
GAMG:  Solving for p, Initial residual = 5.87123e-07, Final residual = 1.22507e-12, No Iterations 1000
GAMG:  Solving for p, Initial residual = 3.22866e-07, Final residual = 1.18154e-12, No Iterations 1000
GAMG:  Solving for p, Initial residual = 1.89073e-07, Final residual = 1.19325e-12, No Iterations 1000
time step continuity errors : sum local = 5.81938e-15, global = 7.2425e-20, cumulative = 1.13252e-14
smoothSolver:  Solving for omega, Initial residual = 0.0130605, Final residual = 8.74349e-15, No Iterations 23
bounding omega, min: -249.887 max: 3933.82 average: 7.55848
smoothSolver:  Solving for k, Initial residual = 0.0110457, Final residual = 8.07504e-15, No Iterations 26
bounding k, min: -0.00388102 max: 0.0103093 average: 0.00381028
ExecutionTime = 46654.8 s  ClockTime = 46661 s

Time = 92

smoothSolver:  Solving for Ux, Initial residual = 0.0206489, Final residual = 9.24092e-15, No Iterations 24
smoothSolver:  Solving for Uy, Initial residual = 0.0019454, Final residual = 4.86936e-15, No Iterations 22
smoothSolver:  Solving for Uz, Initial residual = 0.0205441, Final residual = 6.69377e-15, No Iterations 24
GAMG:  Solving for p, Initial residual = 0.0365984, Final residual = 1.54207e-11, No Iterations 1000
GAMG:  Solving for p, Initial residual = 0.00233973, Final residual = 1.69314e-12, No Iterations 1000
GAMG:  Solving for p, Initial residual = 0.000300901, Final residual = 1.23631e-12, No Iterations 1000
GAMG:  Solving for p, Initial residual = 7.013e-05, Final residual = 1.22015e-12, No Iterations 1000
GAMG:  Solving for p, Initial residual = 2.03551e-05, Final residual = 1.21556e-12, No Iterations 1000
GAMG:  Solving for p, Initial residual = 6.82862e-06, Final residual = 1.19866e-12, No Iterations 1000
GAMG:  Solving for p, Initial residual = 2.64986e-06, Final residual = 1.19088e-12, No Iterations 1000
GAMG:  Solving for p, Initial residual = 1.18613e-06, Final residual = 1.22413e-12, No Iterations 1000
GAMG:  Solving for p, Initial residual = 5.99464e-07, Final residual = 1.21352e-12, No Iterations 1000
GAMG:  Solving for p, Initial residual = 3.31587e-07, Final residual = 1.19852e-12, No Iterations 1000
GAMG:  Solving for p, Initial residual = 1.95083e-07, Final residual = 1.18767e-12, No Iterations 1000
time step continuity errors : sum local = 5.75883e-15, global = -1.56011e-18, cumulative = 1.13237e-14
smoothSolver:  Solving for omega, Initial residual = 0.00259529, Final residual = 5.1508e-15, No Iterations 24
bounding omega, min: -1282.24 max: 58009.3 average: 7.58504
smoothSolver:  Solving for k, Initial residual = 0.0110405, Final residual = 7.30254e-15, No Iterations 26
bounding k, min: -0.00260732 max: 0.00990661 average: 0.0037816
ExecutionTime = 48854.4 s  ClockTime = 48860 s

Time = 93

smoothSolver:  Solving for Ux, Initial residual = 0.0204128, Final residual = 8.86925e-15, No Iterations 24
smoothSolver:  Solving for Uy, Initial residual = 0.00191561, Final residual = 4.53602e-15, No Iterations 22
smoothSolver:  Solving for Uz, Initial residual = 0.02033, Final residual = 9.88668e-15, No Iterations 24
GAMG:  Solving for p, Initial residual = 0.0361845, Final residual = 2.18781e-11, No Iterations 1000
GAMG:  Solving for p, Initial residual = 0.00229831, Final residual = 3.40781e-12, No Iterations 1000
GAMG:  Solving for p, Initial residual = 0.000294276, Final residual = 1.60736e-12, No Iterations 1000
GAMG:  Solving for p, Initial residual = 6.8304e-05, Final residual = 1.29759e-12, No Iterations 1000
GAMG:  Solving for p, Initial residual = 1.97352e-05, Final residual = 1.22205e-12, No Iterations 1000
GAMG:  Solving for p, Initial residual = 6.58295e-06, Final residual = 1.23637e-12, No Iterations 1000
GAMG:  Solving for p, Initial residual = 2.53865e-06, Final residual = 1.2089e-12, No Iterations 1000
GAMG:  Solving for p, Initial residual = 1.12952e-06, Final residual = 1.20364e-12, No Iterations 1000
GAMG:  Solving for p, Initial residual = 5.67995e-07, Final residual = 1.21725e-12, No Iterations 1000
GAMG:  Solving for p, Initial residual = 3.12982e-07, Final residual = 1.19615e-12, No Iterations 1000
GAMG:  Solving for p, Initial residual = 1.83586e-07, Final residual = 1.20904e-12, No Iterations 1000
time step continuity errors : sum local = 5.71136e-15, global = -6.09544e-18, cumulative = 1.13176e-14
smoothSolver:  Solving for omega, Initial residual = 0.147042, Final residual = 7.8184e-15, No Iterations 23
bounding omega, min: -533.236 max: 17402.9 average: 7.58036
smoothSolver:  Solving for k, Initial residual = 0.0110375, Final residual = 6.66953e-15, No Iterations 26
bounding k, min: -0.00402622 max: 0.00980021 average: 0.00375326
ExecutionTime = 51042.4 s  ClockTime = 51049 s

Time = 94

smoothSolver:  Solving for Ux, Initial residual = 0.0201653, Final residual = 4.48123e-15, No Iterations 25
smoothSolver:  Solving for Uy, Initial residual = 0.00188266, Final residual = 4.2353e-15, No Iterations 22
smoothSolver:  Solving for Uz, Initial residual = 0.0200884, Final residual = 8.56673e-15, No Iterations 24
GAMG:  Solving for p, Initial residual = 0.0358148, Final residual = 1.93756e-11, No Iterations 1000
GAMG:  Solving for p, Initial residual = 0.00226459, Final residual = 2.62327e-12, No Iterations 1000
GAMG:  Solving for p, Initial residual = 0.000290214, Final residual = 1.56042e-12, No Iterations 1000
GAMG:  Solving for p, Initial residual = 6.72981e-05, Final residual = 1.29025e-12, No Iterations 1000
GAMG:  Solving for p, Initial residual = 1.94292e-05, Final residual = 1.21979e-12, No Iterations 1000
GAMG:  Solving for p, Initial residual = 6.48754e-06, Final residual = 1.24863e-12, No Iterations 1000
GAMG:  Solving for p, Initial residual = 2.5086e-06, Final residual = 1.19362e-12, No Iterations 1000
GAMG:  Solving for p, Initial residual = 1.12042e-06, Final residual = 1.21527e-12, No Iterations 1000
GAMG:  Solving for p, Initial residual = 5.65657e-07, Final residual = 1.20953e-12, No Iterations 1000
GAMG:  Solving for p, Initial residual = 3.12739e-07, Final residual = 1.23157e-12, No Iterations 1000
GAMG:  Solving for p, Initial residual = 1.83881e-07, Final residual = 1.22632e-12, No Iterations 1000
time step continuity errors : sum local = 5.68971e-15, global = 2.72597e-18, cumulative = 1.13203e-14
smoothSolver:  Solving for omega, Initial residual = 0.0187375, Final residual = 5.99015e-15, No Iterations 24
bounding omega, min: -448.117 max: 5220.93 average: 7.58574
smoothSolver:  Solving for k, Initial residual = 0.0110425, Final residual = 9.58388e-15, No Iterations 26
bounding k, min: -0.00473362 max: 0.00964321 average: 0.00372524
ExecutionTime = 53242.2 s  ClockTime = 53249 s

Time = 95

smoothSolver:  Solving for Ux, Initial residual = 0.0199503, Final residual = 8.94403e-15, No Iterations 24
smoothSolver:  Solving for Uy, Initial residual = 0.00185288, Final residual = 4.38902e-15, No Iterations 22
smoothSolver:  Solving for Uz, Initial residual = 0.019881, Final residual = 9.32536e-15, No Iterations 24
GAMG:  Solving for p, Initial residual = 0.0356637, Final residual = 1.73111e-11, No Iterations 1000
GAMG:  Solving for p, Initial residual = 0.00224181, Final residual = 3.2496e-12, No Iterations 1000
GAMG:  Solving for p, Initial residual = 0.000288096, Final residual = 1.65886e-12, No Iterations 1000
GAMG:  Solving for p, Initial residual = 6.70193e-05, Final residual = 1.32018e-12, No Iterations 1000
GAMG:  Solving for p, Initial residual = 1.94306e-05, Final residual = 1.22662e-12, No Iterations 1000
GAMG:  Solving for p, Initial residual = 6.52884e-06, Final residual = 1.2743e-12, No Iterations 1000
GAMG:  Solving for p, Initial residual = 2.5457e-06, Final residual = 1.21385e-12, No Iterations 1000
GAMG:  Solving for p, Initial residual = 1.14741e-06, Final residual = 1.2252e-12, No Iterations 1000
GAMG:  Solving for p, Initial residual = 5.8418e-07, Final residual = 1.19805e-12, No Iterations 1000
GAMG:  Solving for p, Initial residual = 3.25165e-07, Final residual = 1.20321e-12, No Iterations 1000
GAMG:  Solving for p, Initial residual = 1.92133e-07, Final residual = 1.20502e-12, No Iterations 1000
time step continuity errors : sum local = 5.59433e-15, global = -3.90389e-18, cumulative = 1.13164e-14
smoothSolver:  Solving for omega, Initial residual = 0.00397527, Final residual = 8.02862e-15, No Iterations 23
bounding omega, min: -210.586 max: 2790.98 average: 7.59094
smoothSolver:  Solving for k, Initial residual = 0.011031, Final residual = 9.29342e-15, No Iterations 26
bounding k, min: -0.0029334 max: 0.00958195 average: 0.00369761
ExecutionTime = 55444.4 s  ClockTime = 55451 s

Time = 96

smoothSolver:  Solving for Ux, Initial residual = 0.0197308, Final residual = 5.47668e-15, No Iterations 25
smoothSolver:  Solving for Uy, Initial residual = 0.00182263, Final residual = 4.59153e-15, No Iterations 22
smoothSolver:  Solving for Uz, Initial residual = 0.0196601, Final residual = 9.8919e-15, No Iterations 24
GAMG:  Solving for p, Initial residual = 0.0352958, Final residual = 4.1259e-11, No Iterations 1000
GAMG:  Solving for p, Initial residual = 0.00221164, Final residual = 2.55946e-12, No Iterations 1000
GAMG:  Solving for p, Initial residual = 0.000283821, Final residual = 1.33747e-12, No Iterations 1000
GAMG:  Solving for p, Initial residual = 6.59698e-05, Final residual = 1.21949e-12, No Iterations 1000
GAMG:  Solving for p, Initial residual = 1.90978e-05, Final residual = 1.23136e-12, No Iterations 1000
GAMG:  Solving for p, Initial residual = 6.40629e-06, Final residual = 1.2184e-12, No Iterations 1000
GAMG:  Solving for p, Initial residual = 2.49416e-06, Final residual = 1.21578e-12, No Iterations 1000
GAMG:  Solving for p, Initial residual = 1.1227e-06, Final residual = 1.21471e-12, No Iterations 1000
GAMG:  Solving for p, Initial residual = 5.7089e-07, Final residual = 1.23257e-12, No Iterations 1000
GAMG:  Solving for p, Initial residual = 3.17408e-07, Final residual = 1.21407e-12, No Iterations 1000
GAMG:  Solving for p, Initial residual = 1.87336e-07, Final residual = 1.20385e-12, No Iterations 1000
time step continuity errors : sum local = 5.53909e-15, global = -4.42539e-18, cumulative = 1.1312e-14
smoothSolver:  Solving for omega, Initial residual = 0.00167264, Final residual = 8.68793e-15, No Iterations 23
bounding omega, min: -4310.67 max: 8136.19 average: 7.59858
smoothSolver:  Solving for k, Initial residual = 0.0110153, Final residual = 6.18822e-15, No Iterations 27
bounding k, min: -0.00403124 max: 0.00949304 average: 0.00367034
ExecutionTime = 57646.8 s  ClockTime = 57654 s

Time = 97

smoothSolver:  Solving for Ux, Initial residual = 0.0195127, Final residual = 5.97154e-15, No Iterations 25
smoothSolver:  Solving for Uy, Initial residual = 0.00179264, Final residual = 4.66626e-15, No Iterations 22
smoothSolver:  Solving for Uz, Initial residual = 0.0194347, Final residual = 6.99881e-15, No Iterations 25
GAMG:  Solving for p, Initial residual = 0.0350438, Final residual = 2.72387e-11, No Iterations 1000
GAMG:  Solving for p, Initial residual = 0.0021937, Final residual = 3.81257e-12, No Iterations 1000
GAMG:  Solving for p, Initial residual = 0.000282173, Final residual = 1.57403e-12, No Iterations 1000
GAMG:  Solving for p, Initial residual = 6.56613e-05, Final residual = 1.30116e-12, No Iterations 1000
GAMG:  Solving for p, Initial residual = 1.89835e-05, Final residual = 1.23503e-12, No Iterations 1000
GAMG:  Solving for p, Initial residual = 6.34526e-06, Final residual = 1.21052e-12, No Iterations 1000
GAMG:  Solving for p, Initial residual = 2.45545e-06, Final residual = 1.21516e-12, No Iterations 1000
GAMG:  Solving for p, Initial residual = 1.09748e-06, Final residual = 1.22185e-12, No Iterations 1000
GAMG:  Solving for p, Initial residual = 5.54334e-07, Final residual = 1.25053e-12, No Iterations 1000
GAMG:  Solving for p, Initial residual = 3.06601e-07, Final residual = 1.22158e-12, No Iterations 1000
GAMG:  Solving for p, Initial residual = 1.80273e-07, Final residual = 1.2368e-12, No Iterations 1000
time step continuity errors : sum local = 5.5112e-15, global = 4.35816e-19, cumulative = 1.13124e-14
smoothSolver:  Solving for omega, Initial residual = 0.00559911, Final residual = 5.44239e-15, No Iterations 24
bounding omega, min: -510.498 max: 2440.89 average: 7.60595
smoothSolver:  Solving for k, Initial residual = 0.0110164, Final residual = 6.28975e-15, No Iterations 27
bounding k, min: -0.00378028 max: 0.00963622 average: 0.00364344
ExecutionTime = 59848.7 s  ClockTime = 59856 s

Time = 98

smoothSolver:  Solving for Ux, Initial residual = 0.0192951, Final residual = 9.74221e-15, No Iterations 25
smoothSolver:  Solving for Uy, Initial residual = 0.00176444, Final residual = 7.41333e-15, No Iterations 22
smoothSolver:  Solving for Uz, Initial residual = 0.0192299, Final residual = 4.72946e-15, No Iterations 26
GAMG:  Solving for p, Initial residual = 0.0347695, Final residual = 6.00214e-11, No Iterations 1000
GAMG:  Solving for p, Initial residual = 0.00215964, Final residual = 2.80956e-12, No Iterations 1000
GAMG:  Solving for p, Initial residual = 0.000276828, Final residual = 1.36744e-12, No Iterations 1000
GAMG:  Solving for p, Initial residual = 6.42276e-05, Final residual = 1.23102e-12, No Iterations 1000
GAMG:  Solving for p, Initial residual = 1.8528e-05, Final residual = 1.26398e-12, No Iterations 1000
GAMG:  Solving for p, Initial residual = 6.1851e-06, Final residual = 1.25368e-12, No Iterations 1000
GAMG:  Solving for p, Initial residual = 2.39395e-06, Final residual = 1.22963e-12, No Iterations 1000
GAMG:  Solving for p, Initial residual = 1.07133e-06, Final residual = 1.21666e-12, No Iterations 1000
GAMG:  Solving for p, Initial residual = 5.41949e-07, Final residual = 1.2171e-12, No Iterations 1000
GAMG:  Solving for p, Initial residual = 3.001e-07, Final residual = 1.21599e-12, No Iterations 1000
GAMG:  Solving for p, Initial residual = 1.76594e-07, Final residual = 1.22311e-12, No Iterations 1000
time step continuity errors : sum local = 5.40495e-15, global = -2.90406e-18, cumulative = 1.13095e-14
smoothSolver:  Solving for omega, Initial residual = 0.0018039, Final residual = 9.90857e-15, No Iterations 23
bounding omega, min: -437.405 max: 5312.35 average: 7.61438
smoothSolver:  Solving for k, Initial residual = 0.0109926, Final residual = 6.55243e-15, No Iterations 27
bounding k, min: -0.00302023 max: 0.00988582 average: 0.00361696
ExecutionTime = 62047.8 s  ClockTime = 62055 s

Time = 99

smoothSolver:  Solving for Ux, Initial residual = 0.0190801, Final residual = 9.39953e-15, No Iterations 26
smoothSolver:  Solving for Uy, Initial residual = 0.00173563, Final residual = 8.88613e-15, No Iterations 22
smoothSolver:  Solving for Uz, Initial residual = 0.0190156, Final residual = 5.44831e-15, No Iterations 27
GAMG:  Solving for p, Initial residual = 0.0342816, Final residual = 2.58742e-11, No Iterations 1000
GAMG:  Solving for p, Initial residual = 0.00212093, Final residual = 2.5111e-12, No Iterations 1000
GAMG:  Solving for p, Initial residual = 0.000272358, Final residual = 1.42382e-12, No Iterations 1000
GAMG:  Solving for p, Initial residual = 6.3242e-05, Final residual = 1.23588e-12, No Iterations 1000
GAMG:  Solving for p, Initial residual = 1.823e-05, Final residual = 1.22686e-12, No Iterations 1000
GAMG:  Solving for p, Initial residual = 6.07745e-06, Final residual = 1.21899e-12, No Iterations 1000
GAMG:  Solving for p, Initial residual = 2.34846e-06, Final residual = 1.21087e-12, No Iterations 1000
GAMG:  Solving for p, Initial residual = 1.04967e-06, Final residual = 1.22942e-12, No Iterations 1000
GAMG:  Solving for p, Initial residual = 5.30761e-07, Final residual = 1.21998e-12, No Iterations 1000
GAMG:  Solving for p, Initial residual = 2.93951e-07, Final residual = 1.22858e-12, No Iterations 1000
GAMG:  Solving for p, Initial residual = 1.73116e-07, Final residual = 1.21877e-12, No Iterations 1000
time step continuity errors : sum local = 5.39165e-15, global = -6.00731e-18, cumulative = 1.13035e-14
smoothSolver:  Solving for omega, Initial residual = 0.00386868, Final residual = 5.61717e-15, No Iterations 24
bounding omega, min: -6788.99 max: 12151.8 average: 7.62098
smoothSolver:  Solving for k, Initial residual = 0.0109799, Final residual = 7.07656e-15, No Iterations 27
bounding k, min: -0.00336676 max: 0.00960177 average: 0.00359088
ExecutionTime = 64245.4 s  ClockTime = 64253 s

Time = 100

smoothSolver:  Solving for Ux, Initial residual = 0.0188755, Final residual = 8.60419e-15, No Iterations 27
smoothSolver:  Solving for Uy, Initial residual = 0.00170692, Final residual = 6.88289e-15, No Iterations 23
smoothSolver:  Solving for Uz, Initial residual = 0.0188084, Final residual = 7.50995e-15, No Iterations 27
GAMG:  Solving for p, Initial residual = 0.0342827, Final residual = 4.28778e-11, No Iterations 1000
GAMG:  Solving for p, Initial residual = 0.00212031, Final residual = 7.84612e-12, No Iterations 1000
GAMG:  Solving for p, Initial residual = 0.000273634, Final residual = 2.70646e-12, No Iterations 1000
GAMG:  Solving for p, Initial residual = 6.3729e-05, Final residual = 1.62478e-12, No Iterations 1000
GAMG:  Solving for p, Initial residual = 1.84473e-05, Final residual = 1.31428e-12, No Iterations 1000
GAMG:  Solving for p, Initial residual = 6.19223e-06, Final residual = 1.27059e-12, No Iterations 1000
GAMG:  Solving for p, Initial residual = 2.41575e-06, Final residual = 1.21074e-12, No Iterations 1000
GAMG:  Solving for p, Initial residual = 1.0911e-06, Final residual = 1.24695e-12, No Iterations 1000
GAMG:  Solving for p, Initial residual = 5.56815e-07, Final residual = 1.22079e-12, No Iterations 1000
GAMG:  Solving for p, Initial residual = 3.10496e-07, Final residual = 1.24237e-12, No Iterations 1000
GAMG:  Solving for p, Initial residual = 1.83688e-07, Final residual = 1.24665e-12, No Iterations 1000
time step continuity errors : sum local = 5.33418e-15, global = -2.33052e-18, cumulative = 1.13012e-14
smoothSolver:  Solving for omega, Initial residual = 0.00871597, Final residual = 5.88717e-15, No Iterations 24
bounding omega, min: -698.327 max: 3645.63 average: 7.62842
smoothSolver:  Solving for k, Initial residual = 0.0109544, Final residual = 6.03761e-15, No Iterations 27
bounding k, min: -0.00472688 max: 0.00987508 average: 0.0035652
ExecutionTime = 66449.7 s  ClockTime = 66458 s

Time = 101

smoothSolver:  Solving for Ux, Initial residual = 0.0186651, Final residual = 7.29819e-15, No Iterations 28
smoothSolver:  Solving for Uy, Initial residual = 0.00167885, Final residual = 9.58698e-15, No Iterations 23
smoothSolver:  Solving for Uz, Initial residual = 0.0186021, Final residual = 6.07914e-15, No Iterations 28
GAMG:  Solving for p, Initial residual = 0.0336979, Final residual = 2.50398e-11, No Iterations 1000
GAMG:  Solving for p, Initial residual = 0.00207483, Final residual = 4.03338e-12, No Iterations 1000
GAMG:  Solving for p, Initial residual = 0.000267994, Final residual = 1.92521e-12, No Iterations 1000
GAMG:  Solving for p, Initial residual = 6.2371e-05, Final residual = 1.39603e-12, No Iterations 1000
GAMG:  Solving for p, Initial residual = 1.80056e-05, Final residual = 1.24286e-12, No Iterations 1000
GAMG:  Solving for p, Initial residual = 6.01291e-06, Final residual = 1.23615e-12, No Iterations 1000
GAMG:  Solving for p, Initial residual = 2.33002e-06, Final residual = 1.2387e-12, No Iterations 1000
GAMG:  Solving for p, Initial residual = 1.04442e-06, Final residual = 1.21499e-12, No Iterations 1000
GAMG:  Solving for p, Initial residual = 5.2915e-07, Final residual = 1.2279e-12, No Iterations 1000
GAMG:  Solving for p, Initial residual = 2.93258e-07, Final residual = 1.21676e-12, No Iterations 1000
GAMG:  Solving for p, Initial residual = 1.72627e-07, Final residual = 1.25916e-12, No Iterations 1000
time step continuity errors : sum local = 5.35365e-15, global = 8.64458e-18, cumulative = 1.13098e-14
smoothSolver:  Solving for omega, Initial residual = 0.00237281, Final residual = 5.76648e-15, No Iterations 24
bounding omega, min: -329.207 max: 3541.66 average: 7.63468
smoothSolver:  Solving for k, Initial residual = 0.0109342, Final residual = 5.85264e-15, No Iterations 27
bounding k, min: -0.00419708 max: 0.00972369 average: 0.00353993
ExecutionTime = 68656.2 s  ClockTime = 68664 s

Time = 102

smoothSolver:  Solving for Ux, Initial residual = 0.0184669, Final residual = 9.63706e-15, No Iterations 27
smoothSolver:  Solving for Uy, Initial residual = 0.001652, Final residual = 7.76919e-15, No Iterations 23
smoothSolver:  Solving for Uz, Initial residual = 0.0184158, Final residual = 4.90345e-15, No Iterations 28
GAMG:  Solving for p, Initial residual = 0.0334896, Final residual = 4.25215e-11, No Iterations 1000
GAMG:  Solving for p, Initial residual = 0.00205769, Final residual = 3.92677e-12, No Iterations 1000
GAMG:  Solving for p, Initial residual = 0.000265876, Final residual = 1.86384e-12, No Iterations 1000
GAMG:  Solving for p, Initial residual = 6.19686e-05, Final residual = 1.3837e-12, No Iterations 1000
GAMG:  Solving for p, Initial residual = 1.79509e-05, Final residual = 1.25957e-12, No Iterations 1000
GAMG:  Solving for p, Initial residual = 6.02385e-06, Final residual = 1.21516e-12, No Iterations 1000
GAMG:  Solving for p, Initial residual = 2.34823e-06, Final residual = 1.23279e-12, No Iterations 1000
GAMG:  Solving for p, Initial residual = 1.05888e-06, Final residual = 1.23424e-12, No Iterations 1000
GAMG:  Solving for p, Initial residual = 5.38934e-07, Final residual = 1.22581e-12, No Iterations 1000
GAMG:  Solving for p, Initial residual = 2.99484e-07, Final residual = 1.23738e-12, No Iterations 1000
GAMG:  Solving for p, Initial residual = 1.76479e-07, Final residual = 1.22664e-12, No Iterations 1000
time step continuity errors : sum local = 5.2162e-15, global = 9.91597e-19, cumulative = 1.13108e-14
smoothSolver:  Solving for omega, Initial residual = 0.00213582, Final residual = 6.83362e-15, No Iterations 24
bounding omega, min: -3913.62 max: 8770.14 average: 7.64209
smoothSolver:  Solving for k, Initial residual = 0.0108994, Final residual = 8.22133e-15, No Iterations 26
bounding k, min: -0.00397018 max: 0.00940442 average: 0.0035151
ExecutionTime = 70860.1 s  ClockTime = 70868 s

Time = 103

smoothSolver:  Solving for Ux, Initial residual = 0.0182729, Final residual = 5.34514e-15, No Iterations 28
smoothSolver:  Solving for Uy, Initial residual = 0.00162423, Final residual = 9.86847e-15, No Iterations 23
smoothSolver:  Solving for Uz, Initial residual = 0.0182174, Final residual = 7.63872e-15, No Iterations 28
GAMG:  Solving for p, Initial residual = 0.0331809, Final residual = 3.17479e-11, No Iterations 1000
GAMG:  Solving for p, Initial residual = 0.00202752, Final residual = 1.83615e-12, No Iterations 1000
GAMG:  Solving for p, Initial residual = 0.000261553, Final residual = 1.44741e-12, No Iterations 1000
GAMG:  Solving for p, Initial residual = 6.08591e-05, Final residual = 1.28453e-12, No Iterations 1000
GAMG:  Solving for p, Initial residual = 1.76215e-05, Final residual = 1.27522e-12, No Iterations 1000
GAMG:  Solving for p, Initial residual = 5.928e-06, Final residual = 1.21861e-12, No Iterations 1000
GAMG:  Solving for p, Initial residual = 2.32227e-06, Final residual = 1.27745e-12, No Iterations 1000
GAMG:  Solving for p, Initial residual = 1.05359e-06, Final residual = 1.23698e-12, No Iterations 1000
GAMG:  Solving for p, Initial residual = 5.39766e-07, Final residual = 1.22758e-12, No Iterations 1000
GAMG:  Solving for p, Initial residual = 3.01704e-07, Final residual = 1.212e-12, No Iterations 1000
GAMG:  Solving for p, Initial residual = 1.78626e-07, Final residual = 1.22725e-12, No Iterations 1000
time step continuity errors : sum local = 5.15341e-15, global = -9.39717e-19, cumulative = 1.13099e-14
smoothSolver:  Solving for omega, Initial residual = 0.007421, Final residual = 8.48928e-15, No Iterations 24
bounding omega, min: -135.674 max: 2631.1 average: 7.6464
smoothSolver:  Solving for k, Initial residual = 0.0108671, Final residual = 8.74695e-15, No Iterations 26
bounding k, min: -0.00411868 max: 0.00926059 average: 0.00349068
ExecutionTime = 73083.1 s  ClockTime = 73092 s

Time = 104

smoothSolver:  Solving for Ux, Initial residual = 0.0180982, Final residual = 7.53982e-15, No Iterations 27
smoothSolver:  Solving for Uy, Initial residual = 0.00159807, Final residual = 6.58728e-15, No Iterations 23
smoothSolver:  Solving for Uz, Initial residual = 0.0180362, Final residual = 8.19906e-15, No Iterations 27
GAMG:  Solving for p, Initial residual = 0.0327977, Final residual = 2.57474e-11, No Iterations 1000
GAMG:  Solving for p, Initial residual = 0.00199463, Final residual = 1.90323e-12, No Iterations 1000
GAMG:  Solving for p, Initial residual = 0.000256509, Final residual = 1.28895e-12, No Iterations 1000
GAMG:  Solving for p, Initial residual = 5.9369e-05, Final residual = 1.25003e-12, No Iterations 1000
GAMG:  Solving for p, Initial residual = 1.70749e-05, Final residual = 1.23658e-12, No Iterations 1000
GAMG:  Solving for p, Initial residual = 5.69205e-06, Final residual = 1.25065e-12, No Iterations 1000
GAMG:  Solving for p, Initial residual = 2.20516e-06, Final residual = 1.2169e-12, No Iterations 1000
GAMG:  Solving for p, Initial residual = 9.88984e-07, Final residual = 1.2311e-12, No Iterations 1000
GAMG:  Solving for p, Initial residual = 5.01351e-07, Final residual = 1.23792e-12, No Iterations 1000
GAMG:  Solving for p, Initial residual = 2.77983e-07, Final residual = 1.21892e-12, No Iterations 1000
GAMG:  Solving for p, Initial residual = 1.63642e-07, Final residual = 1.24449e-12, No Iterations 1000
time step continuity errors : sum local = 5.15443e-15, global = -8.93532e-18, cumulative = 1.13009e-14
smoothSolver:  Solving for omega, Initial residual = 0.00173614, Final residual = 7.98833e-15, No Iterations 24
bounding omega, min: -357.654 max: 13932.2 average: 7.65452
smoothSolver:  Solving for k, Initial residual = 0.0108356, Final residual = 9.88963e-15, No Iterations 26
bounding k, min: -0.0038775 max: 0.00932505 average: 0.0034667
ExecutionTime = 75307.1 s  ClockTime = 75316 s

Time = 105

smoothSolver:  Solving for Ux, Initial residual = 0.0179057, Final residual = 8.74786e-15, No Iterations 27
smoothSolver:  Solving for Uy, Initial residual = 0.00157214, Final residual = 9.80467e-15, No Iterations 22
smoothSolver:  Solving for Uz, Initial residual = 0.0178531, Final residual = 6.43885e-15, No Iterations 27
GAMG:  Solving for p, Initial residual = 0.0324353, Final residual = 4.4421e-11, No Iterations 1000
GAMG:  Solving for p, Initial residual = 0.00196697, Final residual = 4.65832e-12, No Iterations 1000
GAMG:  Solving for p, Initial residual = 0.000253562, Final residual = 2.20732e-12, No Iterations 1000
GAMG:  Solving for p, Initial residual = 5.8786e-05, Final residual = 1.50802e-12, No Iterations 1000
GAMG:  Solving for p, Initial residual = 1.69296e-05, Final residual = 1.28837e-12, No Iterations 1000
GAMG:  Solving for p, Initial residual = 5.65437e-06, Final residual = 1.22607e-12, No Iterations 1000
GAMG:  Solving for p, Initial residual = 2.19719e-06, Final residual = 1.22493e-12, No Iterations 1000
GAMG:  Solving for p, Initial residual = 9.88973e-07, Final residual = 1.20586e-12, No Iterations 1000
GAMG:  Solving for p, Initial residual = 5.03129e-07, Final residual = 1.22998e-12, No Iterations 1000
GAMG:  Solving for p, Initial residual = 2.79809e-07, Final residual = 1.22574e-12, No Iterations 1000
GAMG:  Solving for p, Initial residual = 1.6515e-07, Final residual = 1.22174e-12, No Iterations 1000
time step continuity errors : sum local = 5.07516e-15, global = 4.81913e-18, cumulative = 1.13057e-14
smoothSolver:  Solving for omega, Initial residual = 0.0103417, Final residual = 7.99913e-15, No Iterations 24
bounding omega, min: -932.554 max: 4179.92 average: 7.66001
smoothSolver:  Solving for k, Initial residual = 0.010794, Final residual = 9.89846e-15, No Iterations 26
bounding k, min: -0.00398254 max: 0.0102239 average: 0.00344315
ExecutionTime = 77522 s  ClockTime = 77531 s

Time = 106

smoothSolver:  Solving for Ux, Initial residual = 0.0177481, Final residual = 6.72307e-15, No Iterations 27
smoothSolver:  Solving for Uy, Initial residual = 0.00154789, Final residual = 6.60011e-15, No Iterations 23
smoothSolver:  Solving for Uz, Initial residual = 0.0176808, Final residual = 8.02928e-15, No Iterations 27
GAMG:  Solving for p, Initial residual = 0.0323719, Final residual = 3.4932e-11, No Iterations 1000
GAMG:  Solving for p, Initial residual = 0.00196146, Final residual = 2.86401e-12, No Iterations 1000
GAMG:  Solving for p, Initial residual = 0.000253333, Final residual = 1.61317e-12, No Iterations 1000
GAMG:  Solving for p, Initial residual = 5.88652e-05, Final residual = 1.32455e-12, No Iterations 1000
GAMG:  Solving for p, Initial residual = 1.69873e-05, Final residual = 1.27391e-12, No Iterations 1000
GAMG:  Solving for p, Initial residual = 5.68059e-06, Final residual = 1.25488e-12, No Iterations 1000
GAMG:  Solving for p, Initial residual = 2.2061e-06, Final residual = 1.22722e-12, No Iterations 1000
GAMG:  Solving for p, Initial residual = 9.9068e-07, Final residual = 1.25188e-12, No Iterations 1000
GAMG:  Solving for p, Initial residual = 5.02187e-07, Final residual = 1.24058e-12, No Iterations 1000
GAMG:  Solving for p, Initial residual = 2.78128e-07, Final residual = 1.23808e-12, No Iterations 1000
GAMG:  Solving for p, Initial residual = 1.63523e-07, Final residual = 1.26342e-12, No Iterations 1000
time step continuity errors : sum local = 5.08357e-15, global = 4.14702e-18, cumulative = 1.13099e-14
smoothSolver:  Solving for omega, Initial residual = 0.00242625, Final residual = 5.56853e-15, No Iterations 25
bounding omega, min: -306.659 max: 2547.68 average: 7.6645
smoothSolver:  Solving for k, Initial residual = 0.0107522, Final residual = 5.51059e-15, No Iterations 27
bounding k, min: -0.00330161 max: 0.0100391 average: 0.00342003
ExecutionTime = 79724 s  ClockTime = 79734 s

Time = 107

smoothSolver:  Solving for Ux, Initial residual = 0.0175662, Final residual = 7.707e-15, No Iterations 26
smoothSolver:  Solving for Uy, Initial residual = 0.0015229, Final residual = 7.67644e-15, No Iterations 22
smoothSolver:  Solving for Uz, Initial residual = 0.0174945, Final residual = 6.55692e-15, No Iterations 26
GAMG:  Solving for p, Initial residual = 0.0318619, Final residual = 2.9238e-11, No Iterations 1000
GAMG:  Solving for p, Initial residual = 0.00191735, Final residual = 4.84409e-12, No Iterations 1000
GAMG:  Solving for p, Initial residual = 0.000247001, Final residual = 2.15997e-12, No Iterations 1000
GAMG:  Solving for p, Initial residual = 5.72574e-05, Final residual = 1.47108e-12, No Iterations 1000
GAMG:  Solving for p, Initial residual = 1.64922e-05, Final residual = 1.28529e-12, No Iterations 1000
GAMG:  Solving for p, Initial residual = 5.50296e-06, Final residual = 1.27474e-12, No Iterations 1000
GAMG:  Solving for p, Initial residual = 2.13174e-06, Final residual = 1.22019e-12, No Iterations 1000
GAMG:  Solving for p, Initial residual = 9.54727e-07, Final residual = 1.23653e-12, No Iterations 1000
GAMG:  Solving for p, Initial residual = 4.82786e-07, Final residual = 1.2291e-12, No Iterations 1000
GAMG:  Solving for p, Initial residual = 2.66854e-07, Final residual = 1.23127e-12, No Iterations 1000
GAMG:  Solving for p, Initial residual = 1.56634e-07, Final residual = 1.23141e-12, No Iterations 1000
time step continuity errors : sum local = 5.0042e-15, global = -1.53937e-18, cumulative = 1.13084e-14
smoothSolver:  Solving for omega, Initial residual = 0.00243206, Final residual = 9.0048e-15, No Iterations 24
bounding omega, min: -83.8966 max: 174557 average: 7.71002
smoothSolver:  Solving for k, Initial residual = 0.010707, Final residual = 6.98764e-15, No Iterations 27
bounding k, min: -0.00374992 max: 0.00916152 average: 0.00339735
ExecutionTime = 81927.3 s  ClockTime = 81937 s

Time = 108

smoothSolver:  Solving for Ux, Initial residual = 0.0173965, Final residual = 6.6009e-15, No Iterations 28
smoothSolver:  Solving for Uy, Initial residual = 0.00149813, Final residual = 9.15643e-15, No Iterations 23
smoothSolver:  Solving for Uz, Initial residual = 0.0173229, Final residual = 9.87398e-15, No Iterations 27
GAMG:  Solving for p, Initial residual = 0.0316691, Final residual = 2.50551e-11, No Iterations 1000
GAMG:  Solving for p, Initial residual = 0.00189941, Final residual = 1.63771e-12, No Iterations 1000
GAMG:  Solving for p, Initial residual = 0.000244981, Final residual = 1.27365e-12, No Iterations 1000
GAMG:  Solving for p, Initial residual = 5.69328e-05, Final residual = 1.23505e-12, No Iterations 1000
GAMG:  Solving for p, Initial residual = 1.64325e-05, Final residual = 1.24983e-12, No Iterations 1000
GAMG:  Solving for p, Initial residual = 5.50704e-06, Final residual = 1.23861e-12, No Iterations 1000
GAMG:  Solving for p, Initial residual = 2.14842e-06, Final residual = 1.25045e-12, No Iterations 1000
GAMG:  Solving for p, Initial residual = 9.70288e-07, Final residual = 1.26025e-12, No Iterations 1000
GAMG:  Solving for p, Initial residual = 4.94407e-07, Final residual = 1.25903e-12, No Iterations 1000
GAMG:  Solving for p, Initial residual = 2.74803e-07, Final residual = 1.23919e-12, No Iterations 1000
GAMG:  Solving for p, Initial residual = 1.61839e-07, Final residual = 1.24129e-12, No Iterations 1000
time step continuity errors : sum local = 4.97396e-15, global = 1.19876e-18, cumulative = 1.13096e-14
smoothSolver:  Solving for omega, Initial residual = 0.424303, Final residual = 8.15869e-15, No Iterations 22
bounding omega, min: -1433.45 max: 52367.2 average: 7.68858
smoothSolver:  Solving for k, Initial residual = 0.0106709, Final residual = 7.33939e-15, No Iterations 27
bounding k, min: -0.00381783 max: 0.00902699 average: 0.00337509
ExecutionTime = 84119.5 s  ClockTime = 84130 s

Time = 109

smoothSolver:  Solving for Ux, Initial residual = 0.0172292, Final residual = 7.6793e-15, No Iterations 27
smoothSolver:  Solving for Uy, Initial residual = 0.00147454, Final residual = 5.2662e-15, No Iterations 22
smoothSolver:  Solving for Uz, Initial residual = 0.017161, Final residual = 5.41276e-15, No Iterations 27
GAMG:  Solving for p, Initial residual = 0.0313137, Final residual = 1.40127e-11, No Iterations 1000
GAMG:  Solving for p, Initial residual = 0.00186914, Final residual = 1.68211e-12, No Iterations 1000
GAMG:  Solving for p, Initial residual = 0.00024107, Final residual = 1.27569e-12, No Iterations 1000
GAMG:  Solving for p, Initial residual = 5.5915e-05, Final residual = 1.26056e-12, No Iterations 1000
GAMG:  Solving for p, Initial residual = 1.60963e-05, Final residual = 1.25459e-12, No Iterations 1000
GAMG:  Solving for p, Initial residual = 5.37571e-06, Final residual = 1.23796e-12, No Iterations 1000
GAMG:  Solving for p, Initial residual = 2.091e-06, Final residual = 1.24e-12, No Iterations 1000
GAMG:  Solving for p, Initial residual = 9.43331e-07, Final residual = 1.23667e-12, No Iterations 1000
GAMG:  Solving for p, Initial residual = 4.8125e-07, Final residual = 1.24729e-12, No Iterations 1000
GAMG:  Solving for p, Initial residual = 2.68279e-07, Final residual = 1.24421e-12, No Iterations 1000
GAMG:  Solving for p, Initial residual = 1.58608e-07, Final residual = 1.26575e-12, No Iterations 1000
time step continuity errors : sum local = 4.98578e-15, global = 3.74313e-18, cumulative = 1.13133e-14
smoothSolver:  Solving for omega, Initial residual = 0.136531, Final residual = 7.2542e-15, No Iterations 24
bounding omega, min: -249.133 max: 15710.2 average: 7.68658
smoothSolver:  Solving for k, Initial residual = 0.0106242, Final residual = 5.33039e-15, No Iterations 27
bounding k, min: -0.00455131 max: 0.00916058 average: 0.00335327
ExecutionTime = 86312.9 s  ClockTime = 86324 s

Time = 110

smoothSolver:  Solving for Ux, Initial residual = 0.0170633, Final residual = 7.81916e-15, No Iterations 27
smoothSolver:  Solving for Uy, Initial residual = 0.0014516, Final residual = 7.05059e-15, No Iterations 22
smoothSolver:  Solving for Uz, Initial residual = 0.0169987, Final residual = 9.26314e-15, No Iterations 27
GAMG:  Solving for p, Initial residual = 0.0311227, Final residual = 5.01661e-11, No Iterations 1000
GAMG:  Solving for p, Initial residual = 0.00185313, Final residual = 2.57265e-12, No Iterations 1000
GAMG:  Solving for p, Initial residual = 0.000239623, Final residual = 1.52629e-12, No Iterations 1000
GAMG:  Solving for p, Initial residual = 5.56575e-05, Final residual = 1.31073e-12, No Iterations 1000
GAMG:  Solving for p, Initial residual = 1.60865e-05, Final residual = 1.28028e-12, No Iterations 1000
GAMG:  Solving for p, Initial residual = 5.41218e-06, Final residual = 1.22225e-12, No Iterations 1000
GAMG:  Solving for p, Initial residual = 2.12869e-06, Final residual = 1.26378e-12, No Iterations 1000
[...]
smoothSolver:  Solving for Uz, Initial residual = 0.00964776, Final residual = 3.66055e-15, No Iterations 27
GAMG:  Solving for p, Initial residual = 0.0128223, Final residual = 6.22931e-11, No Iterations 1000
GAMG:  Solving for p, Initial residual = 0.000691323, Final residual = 9.06917e-12, No Iterations 1000
GAMG:  Solving for p, Initial residual = 9.53263e-05, Final residual = 3.22245e-12, No Iterations 1000
GAMG:  Solving for p, Initial residual = 2.30149e-05, Final residual = 1.82174e-12, No Iterations 1000
GAMG:  Solving for p, Initial residual = 6.84002e-06, Final residual = 1.43223e-12, No Iterations 1000
GAMG:  Solving for p, Initial residual = 2.33212e-06, Final residual = 1.33841e-12, No Iterations 1000
GAMG:  Solving for p, Initial residual = 9.07369e-07, Final residual = 1.31745e-12, No Iterations 1000
GAMG:  Solving for p, Initial residual = 3.99012e-07, Final residual = 1.3021e-12, No Iterations 1000
GAMG:  Solving for p, Initial residual = 1.94963e-07, Final residual = 1.30948e-12, No Iterations 1000
GAMG:  Solving for p, Initial residual = 1.03579e-07, Final residual = 1.3074e-12, No Iterations 1000
GAMG:  Solving for p, Initial residual = 5.85898e-08, Final residual = 1.30522e-12, No Iterations 1000
time step continuity errors : sum local = 4.13367e-15, global = 5.09267e-19, cumulative = 1.12891e-14
smoothSolver:  Solving for omega, Initial residual = 0.0486145, Final residual = 9.78742e-15, No Iterations 20
bounding omega, min: -943.909 max: 5688.49 average: 7.79779
smoothSolver:  Solving for k, Initial residual = 0.00222016, Final residual = 9.61885e-15, No Iterations 24
bounding k, min: -0.00340267 max: 0.00945798 average: 0.0024466
ExecutionTime = 391082 s  ClockTime = 391147 s

Time = 248

smoothSolver:  Solving for Ux, Initial residual = 0.00947211, Final residual = 6.27606e-15, No Iterations 28
smoothSolver:  Solving for Uy, Initial residual = 0.000640646, Final residual = 4.94433e-15, No Iterations 26
smoothSolver:  Solving for Uz, Initial residual = 0.00962496, Final residual = 5.89421e-15, No Iterations 25
GAMG:  Solving for p, Initial residual = 0.012716, Final residual = 4.01692e-11, No Iterations 1000
GAMG:  Solving for p, Initial residual = 0.000687464, Final residual = 2.83597e-12, No Iterations 1000
GAMG:  Solving for p, Initial residual = 9.49805e-05, Final residual = 1.56594e-12, No Iterations 1000
GAMG:  Solving for p, Initial residual = 2.28485e-05, Final residual = 1.34976e-12, No Iterations 1000
GAMG:  Solving for p, Initial residual = 6.76343e-06, Final residual = 1.29187e-12, No Iterations 1000
GAMG:  Solving for p, Initial residual = 2.2899e-06, Final residual = 1.31779e-12, No Iterations 1000
GAMG:  Solving for p, Initial residual = 8.8081e-07, Final residual = 1.30162e-12, No Iterations 1000
GAMG:  Solving for p, Initial residual = 3.81431e-07, Final residual = 1.3187e-12, No Iterations 1000
GAMG:  Solving for p, Initial residual = 1.83171e-07, Final residual = 1.29418e-12, No Iterations 1000
GAMG:  Solving for p, Initial residual = 9.56673e-08, Final residual = 1.30113e-12, No Iterations 1000
GAMG:  Solving for p, Initial residual = 5.32968e-08, Final residual = 1.29596e-12, No Iterations 1000
time step continuity errors : sum local = 4.14698e-15, global = -3.66515e-19, cumulative = 1.12887e-14
smoothSolver:  Solving for omega, Initial residual = 0.00579356, Final residual = 5.23551e-15, No Iterations 20
bounding omega, min: -68.2625 max: 2894.99 average: 7.79515
smoothSolver:  Solving for k, Initial residual = 0.00220052, Final residual = 9.2751e-15, No Iterations 24
bounding k, min: -0.00305858 max: 0.00882769 average: 0.00244562
ExecutionTime = 393278 s  ClockTime = 393344 s

Time = 249

smoothSolver:  Solving for Ux, Initial residual = 0.00944461, Final residual = 5.09961e-15, No Iterations 24
smoothSolver:  Solving for Uy, Initial residual = 0.00063959, Final residual = 8.13713e-15, No Iterations 21
smoothSolver:  Solving for Uz, Initial residual = 0.00960209, Final residual = 5.73542e-15, No Iterations 24
GAMG:  Solving for p, Initial residual = 0.0126466, Final residual = 6.93005e-11, No Iterations 1000
GAMG:  Solving for p, Initial residual = 0.000682334, Final residual = 6.70561e-12, No Iterations 1000
GAMG:  Solving for p, Initial residual = 9.43219e-05, Final residual = 2.5729e-12, No Iterations 1000
GAMG:  Solving for p, Initial residual = 2.27874e-05, Final residual = 1.63363e-12, No Iterations 1000
GAMG:  Solving for p, Initial residual = 6.79527e-06, Final residual = 1.3676e-12, No Iterations 1000
GAMG:  Solving for p, Initial residual = 2.33288e-06, Final residual = 1.34124e-12, No Iterations 1000
GAMG:  Solving for p, Initial residual = 9.16566e-07, Final residual = 1.31308e-12, No Iterations 1000
GAMG:  Solving for p, Initial residual = 4.07894e-07, Final residual = 1.28898e-12, No Iterations 1000
GAMG:  Solving for p, Initial residual = 2.01807e-07, Final residual = 1.29881e-12, No Iterations 1000
GAMG:  Solving for p, Initial residual = 1.08495e-07, Final residual = 1.28948e-12, No Iterations 1000
GAMG:  Solving for p, Initial residual = 6.20296e-08, Final residual = 1.29343e-12, No Iterations 1000
time step continuity errors : sum local = 4.14284e-15, global = 6.3859e-19, cumulative = 1.12894e-14
smoothSolver:  Solving for omega, Initial residual = 0.00155692, Final residual = 8.54258e-15, No Iterations 20
bounding omega, min: -241 max: 8287.38 average: 7.79728
smoothSolver:  Solving for k, Initial residual = 0.0021848, Final residual = 7.55077e-15, No Iterations 25
bounding k, min: -0.00355169 max: 0.00933843 average: 0.00244465
ExecutionTime = 395473 s  ClockTime = 395539 s

Time = 250

smoothSolver:  Solving for Ux, Initial residual = 0.00941826, Final residual = 8.5491e-15, No Iterations 23
smoothSolver:  Solving for Uy, Initial residual = 0.000638569, Final residual = 6.57421e-15, No Iterations 21
smoothSolver:  Solving for Uz, Initial residual = 0.00958173, Final residual = 7.37779e-15, No Iterations 23
GAMG:  Solving for p, Initial residual = 0.0125938, Final residual = 3.53714e-11, No Iterations 1000
GAMG:  Solving for p, Initial residual = 0.000676121, Final residual = 3.97212e-12, No Iterations 1000
GAMG:  Solving for p, Initial residual = 9.3477e-05, Final residual = 1.92635e-12, No Iterations 1000
GAMG:  Solving for p, Initial residual = 2.27344e-05, Final residual = 1.47742e-12, No Iterations 1000
GAMG:  Solving for p, Initial residual = 6.86216e-06, Final residual = 1.33493e-12, No Iterations 1000
GAMG:  Solving for p, Initial residual = 2.39571e-06, Final residual = 1.29648e-12, No Iterations 1000
GAMG:  Solving for p, Initial residual = 9.60321e-07, Final residual = 1.29906e-12, No Iterations 1000
GAMG:  Solving for p, Initial residual = 4.35914e-07, Final residual = 1.30221e-12, No Iterations 1000
GAMG:  Solving for p, Initial residual = 2.1918e-07, Final residual = 1.28702e-12, No Iterations 1000
GAMG:  Solving for p, Initial residual = 1.1911e-07, Final residual = 1.2857e-12, No Iterations 1000
GAMG:  Solving for p, Initial residual = 6.84647e-08, Final residual = 1.29213e-12, No Iterations 1000
time step continuity errors : sum local = 4.13791e-15, global = 9.2575e-18, cumulative = 1.12986e-14
smoothSolver:  Solving for omega, Initial residual = 0.00581809, Final residual = 8.54474e-15, No Iterations 20
bounding omega, min: -276.113 max: 2486.25 average: 7.7945
smoothSolver:  Solving for k, Initial residual = 0.00216497, Final residual = 6.35127e-15, No Iterations 24
bounding k, min: -0.00297584 max: 0.00921878 average: 0.00244371
ExecutionTime = 397691 s  ClockTime = 397757 s

Time = 251

smoothSolver:  Solving for Ux, Initial residual = 0.00939242, Final residual = 9.3496e-15, No Iterations 27
smoothSolver:  Solving for Uy, Initial residual = 0.000637776, Final residual = 9.60008e-15, No Iterations 24
smoothSolver:  Solving for Uz, Initial residual = 0.00956009, Final residual = 7.32136e-15, No Iterations 27
GAMG:  Solving for p, Initial residual = 0.0126398, Final residual = 3.67183e-11, No Iterations 1000
GAMG:  Solving for p, Initial residual = 0.000682323, Final residual = 3.66218e-12, No Iterations 1000
GAMG:  Solving for p, Initial residual = 9.44607e-05, Final residual = 1.85391e-12, No Iterations 1000
GAMG:  Solving for p, Initial residual = 2.2974e-05, Final residual = 1.40211e-12, No Iterations 1000
GAMG:  Solving for p, Initial residual = 6.92834e-06, Final residual = 1.31475e-12, No Iterations 1000
GAMG:  Solving for p, Initial residual = 2.41952e-06, Final residual = 1.33517e-12, No Iterations 1000
GAMG:  Solving for p, Initial residual = 9.72159e-07, Final residual = 1.30133e-12, No Iterations 1000
GAMG:  Solving for p, Initial residual = 4.43023e-07, Final residual = 1.32353e-12, No Iterations 1000
GAMG:  Solving for p, Initial residual = 2.23724e-07, Final residual = 1.31826e-12, No Iterations 1000
GAMG:  Solving for p, Initial residual = 1.22026e-07, Final residual = 1.3095e-12, No Iterations 1000
GAMG:  Solving for p, Initial residual = 7.03128e-08, Final residual = 1.32138e-12, No Iterations 1000
time step continuity errors : sum local = 4.17012e-15, global = -5.6962e-18, cumulative = 1.12929e-14
smoothSolver:  Solving for omega, Initial residual = 0.00130434, Final residual = 6.13553e-15, No Iterations 20
bounding omega, min: -117.54 max: 895.435 average: 7.79338
smoothSolver:  Solving for k, Initial residual = 0.00214686, Final residual = 6.39407e-15, No Iterations 25
bounding k, min: -0.00366733 max: 0.00927466 average: 0.00244278
ExecutionTime = 399898 s  ClockTime = 399964 s

Time = 252

smoothSolver:  Solving for Ux, Initial residual = 0.00936578, Final residual = 6.57331e-15, No Iterations 24
smoothSolver:  Solving for Uy, Initial residual = 0.000637054, Final residual = 8.03149e-15, No Iterations 23
smoothSolver:  Solving for Uz, Initial residual = 0.00954291, Final residual = 6.18956e-15, No Iterations 25
GAMG:  Solving for p, Initial residual = 0.0125048, Final residual = 1.94101e-11, No Iterations 1000
GAMG:  Solving for p, Initial residual = 0.000672879, Final residual = 3.10046e-12, No Iterations 1000
GAMG:  Solving for p, Initial residual = 9.27306e-05, Final residual = 1.65377e-12, No Iterations 1000
GAMG:  Solving for p, Initial residual = 2.24088e-05, Final residual = 1.33904e-12, No Iterations 1000
GAMG:  Solving for p, Initial residual = 6.70408e-06, Final residual = 1.32483e-12, No Iterations 1000
GAMG:  Solving for p, Initial residual = 2.31497e-06, Final residual = 1.29242e-12, No Iterations 1000
GAMG:  Solving for p, Initial residual = 9.17582e-07, Final residual = 1.29009e-12, No Iterations 1000
GAMG:  Solving for p, Initial residual = 4.12715e-07, Final residual = 1.29812e-12, No Iterations 1000
GAMG:  Solving for p, Initial residual = 2.06402e-07, Final residual = 1.29064e-12, No Iterations 1000
GAMG:  Solving for p, Initial residual = 1.11981e-07, Final residual = 1.28277e-12, No Iterations 1000
GAMG:  Solving for p, Initial residual = 6.44459e-08, Final residual = 1.30093e-12, No Iterations 1000
time step continuity errors : sum local = 4.16385e-15, global = 1.58046e-18, cumulative = 1.12945e-14
smoothSolver:  Solving for omega, Initial residual = 0.000746436, Final residual = 5.04984e-15, No Iterations 20
bounding omega, min: -524.095 max: 2424.41 average: 7.79501
smoothSolver:  Solving for k, Initial residual = 0.00213217, Final residual = 9.21129e-15, No Iterations 24
bounding k, min: -0.0037691 max: 0.00881293 average: 0.00244188
ExecutionTime = 402117 s  ClockTime = 402184 s

Time = 253

smoothSolver:  Solving for Ux, Initial residual = 0.00933938, Final residual = 6.16611e-15, No Iterations 24
smoothSolver:  Solving for Uy, Initial residual = 0.00063611, Final residual = 8.56618e-15, No Iterations 22
smoothSolver:  Solving for Uz, Initial residual = 0.00952241, Final residual = 8.94712e-15, No Iterations 24
GAMG:  Solving for p, Initial residual = 0.0125573, Final residual = 7.05643e-11, No Iterations 1000
GAMG:  Solving for p, Initial residual = 0.000673955, Final residual = 5.32506e-12, No Iterations 1000
GAMG:  Solving for p, Initial residual = 9.3247e-05, Final residual = 2.23001e-12, No Iterations 1000
GAMG:  Solving for p, Initial residual = 2.25827e-05, Final residual = 1.54973e-12, No Iterations 1000
GAMG:  Solving for p, Initial residual = 6.76453e-06, Final residual = 1.33833e-12, No Iterations 1000
GAMG:  Solving for p, Initial residual = 2.33088e-06, Final residual = 1.27413e-12, No Iterations 1000
GAMG:  Solving for p, Initial residual = 9.18503e-07, Final residual = 1.29879e-12, No Iterations 1000
GAMG:  Solving for p, Initial residual = 4.09245e-07, Final residual = 1.29664e-12, No Iterations 1000
GAMG:  Solving for p, Initial residual = 2.02316e-07, Final residual = 1.30654e-12, No Iterations 1000
GAMG:  Solving for p, Initial residual = 1.0851e-07, Final residual = 1.29607e-12, No Iterations 1000
GAMG:  Solving for p, Initial residual = 6.18271e-08, Final residual = 1.32718e-12, No Iterations 1000
time step continuity errors : sum local = 4.18439e-15, global = -8.71279e-18, cumulative = 1.12858e-14
smoothSolver:  Solving for omega, Initial residual = 0.00159178, Final residual = 8.11322e-15, No Iterations 19
bounding omega, min: -687.715 max: 2306.42 average: 7.79506
smoothSolver:  Solving for k, Initial residual = 0.00211774, Final residual = 4.72327e-15, No Iterations 24
bounding k, min: -0.00339634 max: 0.00921291 average: 0.00244097
ExecutionTime = 404319 s  ClockTime = 404387 s

Time = 254

smoothSolver:  Solving for Ux, Initial residual = 0.00931118, Final residual = 4.23262e-15, No Iterations 24
smoothSolver:  Solving for Uy, Initial residual = 0.000634917, Final residual = 5.27081e-15, No Iterations 21
smoothSolver:  Solving for Uz, Initial residual = 0.00949819, Final residual = 6.3971e-15, No Iterations 23
GAMG:  Solving for p, Initial residual = 0.0124618, Final residual = 9.92874e-11, No Iterations 1000
GAMG:  Solving for p, Initial residual = 0.000671186, Final residual = 3.49497e-12, No Iterations 1000
GAMG:  Solving for p, Initial residual = 9.28612e-05, Final residual = 1.74173e-12, No Iterations 1000
GAMG:  Solving for p, Initial residual = 2.2458e-05, Final residual = 1.41148e-12, No Iterations 1000
GAMG:  Solving for p, Initial residual = 6.71603e-06, Final residual = 1.31274e-12, No Iterations 1000
GAMG:  Solving for p, Initial residual = 2.31045e-06, Final residual = 1.28833e-12, No Iterations 1000
GAMG:  Solving for p, Initial residual = 9.08628e-07, Final residual = 1.29671e-12, No Iterations 1000
GAMG:  Solving for p, Initial residual = 4.04005e-07, Final residual = 1.32478e-12, No Iterations 1000
GAMG:  Solving for p, Initial residual = 1.99376e-07, Final residual = 1.28017e-12, No Iterations 1000
GAMG:  Solving for p, Initial residual = 1.06781e-07, Final residual = 1.30774e-12, No Iterations 1000
GAMG:  Solving for p, Initial residual = 6.07656e-08, Final residual = 1.31188e-12, No Iterations 1000
time step continuity errors : sum local = 4.15796e-15, global = 2.69785e-18, cumulative = 1.12885e-14
smoothSolver:  Solving for omega, Initial residual = 0.00136778, Final residual = 8.75425e-15, No Iterations 19
bounding omega, min: -316.201 max: 1973.98 average: 7.79388
smoothSolver:  Solving for k, Initial residual = 0.00209994, Final residual = 9.18323e-15, No Iterations 24
bounding k, min: -0.00225715 max: 0.00918553 average: 0.0024401
ExecutionTime = 406516 s  ClockTime = 406584 s

Time = 255

smoothSolver:  Solving for Ux, Initial residual = 0.00928629, Final residual = 6.19161e-15, No Iterations 24
smoothSolver:  Solving for Uy, Initial residual = 0.000634221, Final residual = 7.35584e-15, No Iterations 22
smoothSolver:  Solving for Uz, Initial residual = 0.00947782, Final residual = 5.33917e-15, No Iterations 24
GAMG:  Solving for p, Initial residual = 0.0124468, Final residual = 3.17256e-11, No Iterations 1000
GAMG:  Solving for p, Initial residual = 0.000671096, Final residual = 3.2403e-12, No Iterations 1000
GAMG:  Solving for p, Initial residual = 9.31534e-05, Final residual = 1.61262e-12, No Iterations 1000
GAMG:  Solving for p, Initial residual = 2.25967e-05, Final residual = 1.39767e-12, No Iterations 1000
GAMG:  Solving for p, Initial residual = 6.80215e-06, Final residual = 1.30253e-12, No Iterations 1000
GAMG:  Solving for p, Initial residual = 2.36738e-06, Final residual = 1.30231e-12, No Iterations 1000
GAMG:  Solving for p, Initial residual = 9.46199e-07, Final residual = 1.30785e-12, No Iterations 1000
GAMG:  Solving for p, Initial residual = 4.28514e-07, Final residual = 1.2816e-12, No Iterations 1000
GAMG:  Solving for p, Initial residual = 2.15226e-07, Final residual = 1.30978e-12, No Iterations 1000
GAMG:  Solving for p, Initial residual = 1.16977e-07, Final residual = 1.30573e-12, No Iterations 1000
GAMG:  Solving for p, Initial residual = 6.73108e-08, Final residual = 1.27278e-12, No Iterations 1000
time step continuity errors : sum local = 4.14423e-15, global = -1.16881e-18, cumulative = 1.12873e-14
smoothSolver:  Solving for omega, Initial residual = 0.000918051, Final residual = 5.4948e-15, No Iterations 20
bounding omega, min: -567.785 max: 4145.15 average: 7.79424
smoothSolver:  Solving for k, Initial residual = 0.00208389, Final residual = 6.91603e-15, No Iterations 24
bounding k, min: -0.00307137 max: 0.00901949 average: 0.00243924
ExecutionTime = 408713 s  ClockTime = 408781 s

Time = 256

smoothSolver:  Solving for Ux, Initial residual = 0.00926333, Final residual = 7.67489e-15, No Iterations 27
smoothSolver:  Solving for Uy, Initial residual = 0.000633263, Final residual = 5.2632e-15, No Iterations 26
smoothSolver:  Solving for Uz, Initial residual = 0.0094586, Final residual = 3.85104e-15, No Iterations 27
GAMG:  Solving for p, Initial residual = 0.012475, Final residual = 5.06257e-11, No Iterations 1000
GAMG:  Solving for p, Initial residual = 0.000672359, Final residual = 3.80148e-12, No Iterations 1000
GAMG:  Solving for p, Initial residual = 9.33804e-05, Final residual = 1.87653e-12, No Iterations 1000
GAMG:  Solving for p, Initial residual = 2.27695e-05, Final residual = 1.42346e-12, No Iterations 1000
GAMG:  Solving for p, Initial residual = 6.89999e-06, Final residual = 1.35936e-12, No Iterations 1000
GAMG:  Solving for p, Initial residual = 2.42905e-06, Final residual = 1.34172e-12, No Iterations 1000
GAMG:  Solving for p, Initial residual = 9.86178e-07, Final residual = 1.35142e-12, No Iterations 1000
GAMG:  Solving for p, Initial residual = 4.54841e-07, Final residual = 1.30102e-12, No Iterations 1000
GAMG:  Solving for p, Initial residual = 2.32594e-07, Final residual = 1.28961e-12, No Iterations 1000
GAMG:  Solving for p, Initial residual = 1.28426e-07, Final residual = 1.29039e-12, No Iterations 1000
GAMG:  Solving for p, Initial residual = 7.48452e-08, Final residual = 1.31169e-12, No Iterations 1000
time step continuity errors : sum local = 4.15999e-15, global = -3.57267e-18, cumulative = 1.12837e-14
smoothSolver:  Solving for omega, Initial residual = 0.00159857, Final residual = 6.15663e-15, No Iterations 21
bounding omega, min: -330.539 max: 2034.25 average: 7.79432
smoothSolver:  Solving for k, Initial residual = 0.00206996, Final residual = 5.76664e-15, No Iterations 24
bounding k, min: -0.00260892 max: 0.0087035 average: 0.00243839
ExecutionTime = 410907 s  ClockTime = 410975 s

Time = 257

smoothSolver:  Solving for Ux, Initial residual = 0.00923879, Final residual = 8.2828e-15, No Iterations 24
smoothSolver:  Solving for Uy, Initial residual = 0.000632044, Final residual = 8.61172e-15, No Iterations 22
smoothSolver:  Solving for Uz, Initial residual = 0.00943423, Final residual = 8.15513e-15, No Iterations 24
GAMG:  Solving for p, Initial residual = 0.0123711, Final residual = 5.51881e-11, No Iterations 1000
GAMG:  Solving for p, Initial residual = 0.000665412, Final residual = 4.48594e-12, No Iterations 1000
