/*---------------------------------------------------------------------------*\
| =========                 |                                                 |
| \\      /  F ield         | OpenFOAM: The Open Source CFD Toolbox           |
|  \\    /   O peration     | Version:  2306                                  |
|   \\  /    A nd           | Website:  www.openfoam.com                      |
|    \\/     M anipulation  |                                                 |
\*---------------------------------------------------------------------------*/
Build  : a6e826bd55-20230630 OPENFOAM=2306 version=v2306
Arch   : "LSB;label=32;scalar=64"
Exec   : simpleFoam -parallel
Date   : Aug 05 2024
Time   : 14:09:44
Host   : kummi
PID    : 94540
I/O    : uncollated
Case   : /home/kummi/OpenFOAM/kummi-v2306/run/rod-bundles-project/test_cases/case_3x3_rod_bundle_6_million_EBRSM
nProcs : 10
Hosts  :
(
    (kummi 10)
)
Pstream initialized with:
    floatTransfer      : false
    nProcsSimpleSum    : 0
    nonBlockingExchange: 0 (tuning: 0)
    exchange algorithm : -1
    commsType          : nonBlocking
    polling iterations : 0
trapFpe: Floating point exception trapping enabled (FOAM_SIGFPE).
fileModificationChecking : Monitoring run-time modified files using timeStampMaster (fileModificationSkew 5, maxFileModificationPolls 20)
allowSystemOperations : Allowing user-supplied system call operations

// * * * * * * * * * * * * * * * * * * * * * * * * * * * * * * * * * * * * * //
Create time

Create mesh for time = 0


SIMPLE: convergence criteria
    field p	 tolerance 1e-08
    field U	 tolerance 1e-08
    field "(k|epsilon|omega|f|R|v2)"	 tolerance 1e-08

Reading field p

Reading field U

Reading/calculating face flux field phi

Selecting incompressible transport model Newtonian
Selecting turbulence model type RAS
Selecting RAS turbulence model EBRSM
bounding k, min: 0 max: 1.5e-16 average: 0
EBRSMCoeffs
{
    Cmu             0.07;
    couplingFactor  0;
    simpleGradientDiffusion false;
    g1              3.4;
    g1star          1.8;
    g3              0.8;
    g3star          1.3;
    g4              1.25;
    g5              0.2;
    Ceps1           1.44;
    Ceps2           1.83;
    sigmaK          1;
    sigmaEps        1.15;
    A1              0.065;
    Ct              6;
    Cl              0.133;
    Ceta            80;
    Cstability      10;
}

No MRF models present

No finite volume options present

Starting time loop

Time = 1

smoothSolver:  Solving for Ux, Initial residual = 0.383454, Final residual = 0.000826438, No Iterations 1
smoothSolver:  Solving for Uy, Initial residual = 0.974358, Final residual = 0.0276634, No Iterations 1
smoothSolver:  Solving for Uz, Initial residual = 0.381901, Final residual = 0.000810049, No Iterations 1
GAMG:  Solving for p, Initial residual = 1, Final residual = 0.0963126, No Iterations 50
GAMG:  Solving for p, Initial residual = 0.0975176, Final residual = 0.00962475, No Iterations 72
GAMG:  Solving for p, Initial residual = 0.0194184, Final residual = 0.00191954, No Iterations 199
GAMG:  Solving for p, Initial residual = 0.00643953, Final residual = 0.000638889, No Iterations 136
GAMG:  Solving for p, Initial residual = 0.00216142, Final residual = 0.000215292, No Iterations 172
GAMG:  Solving for p, Initial residual = 0.000914081, Final residual = 9.1109e-05, No Iterations 129
time step continuity errors : sum local = 3.6976e-08, global = 1.90814e-09, cumulative = 1.90814e-09
smoothSolver:  Solving for f, Initial residual = 1, Final residual = 0.00041618, No Iterations 1
smoothSolver:  Solving for epsilon, Initial residual = 0.000146289, Final residual = 1.29318e-05, No Iterations 1
smoothSolver:  Solving for Rxx, Initial residual = 1, Final residual = 5.63861e-17, No Iterations 1
smoothSolver:  Solving for Rxy, Initial residual = 1, Final residual = 2.27078e-15, No Iterations 1
smoothSolver:  Solving for Rxz, Initial residual = 1, Final residual = 5.89042e-17, No Iterations 1
smoothSolver:  Solving for Ryy, Initial residual = 1, Final residual = 5.41365e-17, No Iterations 1
smoothSolver:  Solving for Ryz, Initial residual = 1, Final residual = 2.26964e-15, No Iterations 1
smoothSolver:  Solving for Rzz, Initial residual = 1, Final residual = 1.79541e-15, No Iterations 1
ExecutionTime = 157.93 s  ClockTime = 158 s

Time = 2

smoothSolver:  Solving for Ux, Initial residual = 0.302908, Final residual = 0.00933581, No Iterations 1
smoothSolver:  Solving for Uy, Initial residual = 0.0716497, Final residual = 0.00223578, No Iterations 1
smoothSolver:  Solving for Uz, Initial residual = 0.300477, Final residual = 0.00909316, No Iterations 1
GAMG:  Solving for p, Initial residual = 0.357533, Final residual = 0.0354621, No Iterations 41
GAMG:  Solving for p, Initial residual = 0.0445857, Final residual = 0.00435738, No Iterations 89
GAMG:  Solving for p, Initial residual = 0.0100002, Final residual = 0.000992101, No Iterations 148
GAMG:  Solving for p, Initial residual = 0.00342404, Final residual = 0.000339683, No Iterations 156
GAMG:  Solving for p, Initial residual = 0.00138023, Final residual = 0.000137776, No Iterations 144
GAMG:  Solving for p, Initial residual = 0.000602749, Final residual = 5.99238e-05, No Iterations 138
time step continuity errors : sum local = 4.40445e-08, global = 2.4082e-09, cumulative = 4.31635e-09
smoothSolver:  Solving for f, Initial residual = 0.0161996, Final residual = 6.70673e-06, No Iterations 1
smoothSolver:  Solving for epsilon, Initial residual = 0.000282826, Final residual = 1.18685e-05, No Iterations 1
smoothSolver:  Solving for Rxx, Initial residual = 6.53489e-06, Final residual = 1.37311e-16, No Iterations 1
smoothSolver:  Solving for Rxy, Initial residual = 0.99937, Final residual = 4.00517e-15, No Iterations 1
smoothSolver:  Solving for Rxz, Initial residual = 7.54868e-06, Final residual = 3.40643e-17, No Iterations 1
smoothSolver:  Solving for Ryy, Initial residual = 7.33804e-06, Final residual = 4.32007e-16, No Iterations 1
smoothSolver:  Solving for Ryz, Initial residual = 0.996934, Final residual = 3.9951e-15, No Iterations 1
smoothSolver:  Solving for Rzz, Initial residual = 0.0530635, Final residual = 3.21076e-16, No Iterations 1
ExecutionTime = 303.6 s  ClockTime = 304 s

Time = 3

smoothSolver:  Solving for Ux, Initial residual = 0.227136, Final residual = 0.0070908, No Iterations 1
smoothSolver:  Solving for Uy, Initial residual = 0.0287944, Final residual = 0.000783404, No Iterations 1
smoothSolver:  Solving for Uz, Initial residual = 0.225376, Final residual = 0.00701832, No Iterations 1
GAMG:  Solving for p, Initial residual = 0.252378, Final residual = 0.0239287, No Iterations 32
GAMG:  Solving for p, Initial residual = 0.0331668, Final residual = 0.00327421, No Iterations 106
GAMG:  Solving for p, Initial residual = 0.00752929, Final residual = 0.000749674, No Iterations 190
GAMG:  Solving for p, Initial residual = 0.00274511, Final residual = 0.000272541, No Iterations 146
GAMG:  Solving for p, Initial residual = 0.00105562, Final residual = 0.00010502, No Iterations 152
GAMG:  Solving for p, Initial residual = 0.000475499, Final residual = 4.74127e-05, No Iterations 93
time step continuity errors : sum local = 4.40046e-08, global = 2.15021e-09, cumulative = 6.46656e-09
smoothSolver:  Solving for f, Initial residual = 0.00554487, Final residual = 2.28408e-06, No Iterations 1
smoothSolver:  Solving for epsilon, Initial residual = 5.07132e-08, Final residual = 1.8874e-09, No Iterations 1
smoothSolver:  Solving for Rxx, Initial residual = 2.39692e-06, Final residual = 5.04773e-17, No Iterations 1
smoothSolver:  Solving for Rxy, Initial residual = 0.999135, Final residual = 4.66394e-15, No Iterations 1
smoothSolver:  Solving for Rxz, Initial residual = 3.42961e-06, Final residual = 2.44048e-17, No Iterations 1
smoothSolver:  Solving for Ryy, Initial residual = 2.11625e-06, Final residual = 1.07603e-16, No Iterations 1
smoothSolver:  Solving for Ryz, Initial residual = 0.995973, Final residual = 4.65007e-15, No Iterations 1
smoothSolver:  Solving for Rzz, Initial residual = 0.0130182, Final residual = 1.81603e-16, No Iterations 1
ExecutionTime = 449.82 s  ClockTime = 450 s

Time = 4

smoothSolver:  Solving for Ux, Initial residual = 0.168005, Final residual = 0.00484631, No Iterations 1
smoothSolver:  Solving for Uy, Initial residual = 0.0192148, Final residual = 0.000531403, No Iterations 1
smoothSolver:  Solving for Uz, Initial residual = 0.166201, Final residual = 0.00483495, No Iterations 1
GAMG:  Solving for p, Initial residual = 0.208675, Final residual = 0.0206592, No Iterations 28
GAMG:  Solving for p, Initial residual = 0.0313237, Final residual = 0.0030421, No Iterations 70
GAMG:  Solving for p, Initial residual = 0.0074146, Final residual = 0.000738608, No Iterations 140
GAMG:  Solving for p, Initial residual = 0.00246735, Final residual = 0.000246712, No Iterations 158
GAMG:  Solving for p, Initial residual = 0.000984309, Final residual = 9.77437e-05, No Iterations 146
GAMG:  Solving for p, Initial residual = 0.000427706, Final residual = 4.24653e-05, No Iterations 136
time step continuity errors : sum local = 3.97042e-08, global = 2.11864e-09, cumulative = 8.5852e-09
smoothSolver:  Solving for f, Initial residual = 0.00242655, Final residual = 9.94742e-07, No Iterations 1
smoothSolver:  Solving for epsilon, Initial residual = 3.27462e-08, Final residual = 1.1398e-09, No Iterations 1
smoothSolver:  Solving for Rxx, Initial residual = 1.22078e-06, Final residual = 1.93215e-17, No Iterations 1
smoothSolver:  Solving for Rxy, Initial residual = 0.99891, Final residual = 5.13461e-15, No Iterations 1
smoothSolver:  Solving for Rxz, Initial residual = 3.92066e-06, Final residual = 2.61727e-17, No Iterations 1
smoothSolver:  Solving for Ryy, Initial residual = 7.82279e-07, Final residual = 3.75222e-17, No Iterations 1
smoothSolver:  Solving for Ryz, Initial residual = 0.995948, Final residual = 5.121e-15, No Iterations 1
smoothSolver:  Solving for Rzz, Initial residual = 0.00366413, Final residual = 1.34212e-16, No Iterations 1
ExecutionTime = 588.53 s  ClockTime = 589 s

Time = 5

smoothSolver:  Solving for Ux, Initial residual = 0.122077, Final residual = 0.00362386, No Iterations 1
smoothSolver:  Solving for Uy, Initial residual = 0.0154343, Final residual = 0.000438262, No Iterations 1
smoothSolver:  Solving for Uz, Initial residual = 0.121304, Final residual = 0.00361206, No Iterations 1
GAMG:  Solving for p, Initial residual = 0.186078, Final residual = 0.0183595, No Iterations 18
GAMG:  Solving for p, Initial residual = 0.0313591, Final residual = 0.00313073, No Iterations 61
GAMG:  Solving for p, Initial residual = 0.00846147, Final residual = 0.000830222, No Iterations 70
GAMG:  Solving for p, Initial residual = 0.00270544, Final residual = 0.000259958, No Iterations 99
GAMG:  Solving for p, Initial residual = 0.00106223, Final residual = 0.000105869, No Iterations 92
GAMG:  Solving for p, Initial residual = 0.000453739, Final residual = 4.52205e-05, No Iterations 108
time step continuity errors : sum local = 3.93995e-08, global = 1.8527e-09, cumulative = 1.04379e-08
smoothSolver:  Solving for f, Initial residual = 0.00115614, Final residual = 4.71758e-07, No Iterations 1
smoothSolver:  Solving for epsilon, Initial residual = 2.94991e-08, Final residual = 9.98181e-10, No Iterations 1
smoothSolver:  Solving for Rxx, Initial residual = 1.2417e-06, Final residual = 2.24449e-17, No Iterations 1
smoothSolver:  Solving for Rxy, Initial residual = 0.998663, Final residual = 5.45555e-15, No Iterations 1
smoothSolver:  Solving for Rxz, Initial residual = 1.07837e-05, Final residual = 5.56841e-17, No Iterations 1
smoothSolver:  Solving for Ryy, Initial residual = 4.29119e-07, Final residual = 3.1444e-17, No Iterations 1
smoothSolver:  Solving for Ryz, Initial residual = 0.996106, Final residual = 5.44385e-15, No Iterations 1
smoothSolver:  Solving for Rzz, Initial residual = 0.00108425, Final residual = 1.05565e-16, No Iterations 1
ExecutionTime = 684.94 s  ClockTime = 685 s

Time = 6

smoothSolver:  Solving for Ux, Initial residual = 0.0980906, Final residual = 0.00302822, No Iterations 1
smoothSolver:  Solving for Uy, Initial residual = 0.0125537, Final residual = 0.000368152, No Iterations 1
smoothSolver:  Solving for Uz, Initial residual = 0.0983582, Final residual = 0.00304446, No Iterations 1
GAMG:  Solving for p, Initial residual = 0.173224, Final residual = 0.0170026, No Iterations 20
GAMG:  Solving for p, Initial residual = 0.0294574, Final residual = 0.00290526, No Iterations 82
GAMG:  Solving for p, Initial residual = 0.00986652, Final residual = 0.000957981, No Iterations 123
GAMG:  Solving for p, Initial residual = 0.00375368, Final residual = 0.000369403, No Iterations 94
GAMG:  Solving for p, Initial residual = 0.00137874, Final residual = 0.000136795, No Iterations 142
GAMG:  Solving for p, Initial residual = 0.000634907, Final residual = 6.31699e-05, No Iterations 122
time step continuity errors : sum local = 4.59047e-08, global = -2.67942e-09, cumulative = 7.75848e-09
smoothSolver:  Solving for f, Initial residual = 0.000571538, Final residual = 2.32184e-07, No Iterations 1
smoothSolver:  Solving for epsilon, Initial residual = 3.07781e-08, Final residual = 1.02889e-09, No Iterations 1
smoothSolver:  Solving for Rxx, Initial residual = 5.39751e-07, Final residual = 2.73811e-17, No Iterations 1
smoothSolver:  Solving for Rxy, Initial residual = 0.998405, Final residual = 5.67161e-15, No Iterations 1
smoothSolver:  Solving for Rxz, Initial residual = 1.90655e-05, Final residual = 1.41237e-16, No Iterations 1
smoothSolver:  Solving for Ryy, Initial residual = 2.46012e-07, Final residual = 3.24153e-17, No Iterations 1
smoothSolver:  Solving for Ryz, Initial residual = 0.996187, Final residual = 5.6612e-15, No Iterations 1
smoothSolver:  Solving for Rzz, Initial residual = 0.000307414, Final residual = 8.39737e-17, No Iterations 1
ExecutionTime = 806.01 s  ClockTime = 806 s

Time = 7

smoothSolver:  Solving for Ux, Initial residual = 0.0942614, Final residual = 0.00303433, No Iterations 1
smoothSolver:  Solving for Uy, Initial residual = 0.00979489, Final residual = 0.000304073, No Iterations 1
smoothSolver:  Solving for Uz, Initial residual = 0.0948403, Final residual = 0.00306885, No Iterations 1
GAMG:  Solving for p, Initial residual = 0.17956, Final residual = 0.017172, No Iterations 22
GAMG:  Solving for p, Initial residual = 0.0311888, Final residual = 0.00310508, No Iterations 102
GAMG:  Solving for p, Initial residual = 0.0117391, Final residual = 0.00115495, No Iterations 97
GAMG:  Solving for p, Initial residual = 0.0039204, Final residual = 0.000391933, No Iterations 104
GAMG:  Solving for p, Initial residual = 0.00193227, Final residual = 0.000191191, No Iterations 92
GAMG:  Solving for p, Initial residual = 0.000749603, Final residual = 7.46775e-05, No Iterations 140
time step continuity errors : sum local = 4.24587e-08, global = -2.52015e-09, cumulative = 5.23833e-09
smoothSolver:  Solving for f, Initial residual = 0.00028754, Final residual = 1.16319e-07, No Iterations 1
smoothSolver:  Solving for epsilon, Initial residual = 3.44271e-08, Final residual = 1.11634e-09, No Iterations 1
smoothSolver:  Solving for Rxx, Initial residual = 1.89549e-07, Final residual = 3.04144e-17, No Iterations 1
smoothSolver:  Solving for Rxy, Initial residual = 0.998124, Final residual = 5.8218e-15, No Iterations 1
smoothSolver:  Solving for Rxz, Initial residual = 3.03033e-06, Final residual = 2.05428e-16, No Iterations 1
smoothSolver:  Solving for Ryy, Initial residual = 1.03496e-07, Final residual = 3.53372e-17, No Iterations 1
smoothSolver:  Solving for Ryz, Initial residual = 0.996092, Final residual = 5.81214e-15, No Iterations 1
smoothSolver:  Solving for Rzz, Initial residual = 8.73514e-05, Final residual = 6.86832e-17, No Iterations 1
ExecutionTime = 922.67 s  ClockTime = 923 s

Time = 8

smoothSolver:  Solving for Ux, Initial residual = 0.10526, Final residual = 0.00369091, No Iterations 1
smoothSolver:  Solving for Uy, Initial residual = 0.00737207, Final residual = 0.000241424, No Iterations 1
smoothSolver:  Solving for Uz, Initial residual = 0.106212, Final residual = 0.00374095, No Iterations 1
GAMG:  Solving for p, Initial residual = 0.20093, Final residual = 0.0200628, No Iterations 24
GAMG:  Solving for p, Initial residual = 0.0385049, Final residual = 0.00372383, No Iterations 77
GAMG:  Solving for p, Initial residual = 0.0119386, Final residual = 0.00118993, No Iterations 106
GAMG:  Solving for p, Initial residual = 0.00407263, Final residual = 0.000404376, No Iterations 104
GAMG:  Solving for p, Initial residual = 0.00187216, Final residual = 0.00018641, No Iterations 102
GAMG:  Solving for p, Initial residual = 0.000765626, Final residual = 7.63336e-05, No Iterations 136
time step continuity errors : sum local = 3.63654e-08, global = -2.14691e-09, cumulative = 3.09142e-09
smoothSolver:  Solving for f, Initial residual = 0.000145929, Final residual = 5.87968e-08, No Iterations 1
smoothSolver:  Solving for epsilon, Initial residual = 3.8332e-08, Final residual = 1.21994e-09, No Iterations 1
smoothSolver:  Solving for Rxx, Initial residual = 1.47603e-07, Final residual = 3.22223e-17, No Iterations 1
smoothSolver:  Solving for Rxy, Initial residual = 0.99776, Final residual = 5.93587e-15, No Iterations 1
smoothSolver:  Solving for Rxz, Initial residual = 2.40326e-06, Final residual = 1.85663e-16, No Iterations 1
smoothSolver:  Solving for Ryy, Initial residual = 1.21893e-07, Final residual = 3.95073e-17, No Iterations 1
smoothSolver:  Solving for Ryz, Initial residual = 0.995804, Final residual = 5.92652e-15, No Iterations 1
smoothSolver:  Solving for Rzz, Initial residual = 2.61535e-05, Final residual = 5.91921e-17, No Iterations 1
ExecutionTime = 1037.96 s  ClockTime = 1038 s

Time = 9

smoothSolver:  Solving for Ux, Initial residual = 0.11747, Final residual = 0.00441011, No Iterations 1
smoothSolver:  Solving for Uy, Initial residual = 0.00561099, Final residual = 0.000183482, No Iterations 1
smoothSolver:  Solving for Uz, Initial residual = 0.118099, Final residual = 0.00446529, No Iterations 1
GAMG:  Solving for p, Initial residual = 0.221444, Final residual = 0.0214766, No Iterations 24
GAMG:  Solving for p, Initial residual = 0.0428449, Final residual = 0.00422434, No Iterations 64
GAMG:  Solving for p, Initial residual = 0.0109068, Final residual = 0.00107641, No Iterations 86
GAMG:  Solving for p, Initial residual = 0.0037906, Final residual = 0.00037735, No Iterations 102
GAMG:  Solving for p, Initial residual = 0.00141247, Final residual = 0.000139443, No Iterations 134
GAMG:  Solving for p, Initial residual = 0.000644991, Final residual = 6.42781e-05, No Iterations 120
time step continuity errors : sum local = 2.95321e-08, global = -1.72204e-09, cumulative = 1.36938e-09
smoothSolver:  Solving for f, Initial residual = 7.43929e-05, Final residual = 2.98602e-08, No Iterations 1
smoothSolver:  Solving for epsilon, Initial residual = 4.21644e-08, Final residual = 1.32723e-09, No Iterations 1
smoothSolver:  Solving for Rxx, Initial residual = 1.58936e-07, Final residual = 3.41448e-17, No Iterations 1
smoothSolver:  Solving for Rxy, Initial residual = 0.997364, Final residual = 6.01258e-15, No Iterations 1
smoothSolver:  Solving for Rxz, Initial residual = 1.06499e-06, Final residual = 1.72396e-16, No Iterations 1
smoothSolver:  Solving for Ryy, Initial residual = 1.61996e-07, Final residual = 4.30574e-17, No Iterations 1
smoothSolver:  Solving for Ryz, Initial residual = 0.995454, Final residual = 6.00334e-15, No Iterations 1
smoothSolver:  Solving for Rzz, Initial residual = 8.18977e-06, Final residual = 5.32342e-17, No Iterations 1
ExecutionTime = 1149.63 s  ClockTime = 1150 s

Time = 10

smoothSolver:  Solving for Ux, Initial residual = 0.120163, Final residual = 0.00471215, No Iterations 1
smoothSolver:  Solving for Uy, Initial residual = 0.00444066, Final residual = 0.000142532, No Iterations 1
smoothSolver:  Solving for Uz, Initial residual = 0.120473, Final residual = 0.0047572, No Iterations 1
GAMG:  Solving for p, Initial residual = 0.239671, Final residual = 0.0237411, No Iterations 16
GAMG:  Solving for p, Initial residual = 0.0390581, Final residual = 0.00381816, No Iterations 75
GAMG:  Solving for p, Initial residual = 0.0113165, Final residual = 0.00112599, No Iterations 74
GAMG:  Solving for p, Initial residual = 0.00334204, Final residual = 0.000331637, No Iterations 126
GAMG:  Solving for p, Initial residual = 0.00131672, Final residual = 0.00013011, No Iterations 136
GAMG:  Solving for p, Initial residual = 0.000570805, Final residual = 5.68489e-05, No Iterations 132
time step continuity errors : sum local = 2.88361e-08, global = -1.70618e-09, cumulative = -3.36804e-10
smoothSolver:  Solving for f, Initial residual = 3.80144e-05, Final residual = 1.52038e-08, No Iterations 1
smoothSolver:  Solving for epsilon, Initial residual = 4.55114e-08, Final residual = 1.41894e-09, No Iterations 1
smoothSolver:  Solving for Rxx, Initial residual = 2.13484e-07, Final residual = 3.58159e-17, No Iterations 1
smoothSolver:  Solving for Rxy, Initial residual = 0.997009, Final residual = 6.05148e-15, No Iterations 1
smoothSolver:  Solving for Rxz, Initial residual = 7.29017e-07, Final residual = 1.78468e-16, No Iterations 1
smoothSolver:  Solving for Ryy, Initial residual = 2.18558e-07, Final residual = 4.48982e-17, No Iterations 1
smoothSolver:  Solving for Ryz, Initial residual = 0.99513, Final residual = 6.04205e-15, No Iterations 1
smoothSolver:  Solving for Rzz, Initial residual = 2.78222e-06, Final residual = 4.94409e-17, No Iterations 1
ExecutionTime = 1266.67 s  ClockTime = 1267 s

Time = 11

smoothSolver:  Solving for Ux, Initial residual = 0.115202, Final residual = 0.00448037, No Iterations 1
smoothSolver:  Solving for Uy, Initial residual = 0.00381892, Final residual = 0.000119618, No Iterations 1
smoothSolver:  Solving for Uz, Initial residual = 0.115484, Final residual = 0.00449794, No Iterations 1
GAMG:  Solving for p, Initial residual = 0.24581, Final residual = 0.0235606, No Iterations 17
GAMG:  Solving for p, Initial residual = 0.0389817, Final residual = 0.00383645, No Iterations 64
GAMG:  Solving for p, Initial residual = 0.0103116, Final residual = 0.00101014, No Iterations 68
GAMG:  Solving for p, Initial residual = 0.00303413, Final residual = 0.000303309, No Iterations 88
GAMG:  Solving for p, Initial residual = 0.00111571, Final residual = 0.000110723, No Iterations 107
GAMG:  Solving for p, Initial residual = 0.000475393, Final residual = 4.69123e-05, No Iterations 79
time step continuity errors : sum local = 2.68736e-08, global = 6.44483e-10, cumulative = 3.07679e-10
smoothSolver:  Solving for f, Initial residual = 1.94613e-05, Final residual = 7.75641e-09, No Iterations 1
smoothSolver:  Solving for epsilon, Initial residual = 4.78962e-08, Final residual = 1.49623e-09, No Iterations 1
smoothSolver:  Solving for Rxx, Initial residual = 2.88328e-07, Final residual = 3.64615e-17, No Iterations 1
smoothSolver:  Solving for Rxy, Initial residual = 0.996707, Final residual = 6.06565e-15, No Iterations 1
smoothSolver:  Solving for Rxz, Initial residual = 2.52044e-07, Final residual = 1.71357e-16, No Iterations 1
smoothSolver:  Solving for Ryy, Initial residual = 2.90211e-07, Final residual = 4.44889e-17, No Iterations 1
smoothSolver:  Solving for Ryz, Initial residual = 0.994847, Final residual = 6.05615e-15, No Iterations 1
smoothSolver:  Solving for Rzz, Initial residual = 1.14322e-06, Final residual = 4.63879e-17, No Iterations 1
ExecutionTime = 1358.71 s  ClockTime = 1359 s

Time = 12

smoothSolver:  Solving for Ux, Initial residual = 0.108109, Final residual = 0.00405666, No Iterations 1
smoothSolver:  Solving for Uy, Initial residual = 0.00353759, Final residual = 0.000111412, No Iterations 1
smoothSolver:  Solving for Uz, Initial residual = 0.108305, Final residual = 0.00408721, No Iterations 1
GAMG:  Solving for p, Initial residual = 0.240129, Final residual = 0.0230725, No Iterations 17
GAMG:  Solving for p, Initial residual = 0.0373738, Final residual = 0.00367815, No Iterations 72
GAMG:  Solving for p, Initial residual = 0.00954608, Final residual = 0.000940614, No Iterations 97
GAMG:  Solving for p, Initial residual = 0.00282358, Final residual = 0.000281485, No Iterations 140
GAMG:  Solving for p, Initial residual = 0.00106474, Final residual = 0.000105167, No Iterations 94
GAMG:  Solving for p, Initial residual = 0.00045396, Final residual = 4.5208e-05, No Iterations 98
time step continuity errors : sum local = 2.91109e-08, global = 1.53538e-09, cumulative = 1.84306e-09
smoothSolver:  Solving for f, Initial residual = 1.00073e-05, Final residual = 3.98855e-09, No Iterations 1
smoothSolver:  Solving for epsilon, Initial residual = 4.96353e-08, Final residual = 1.55883e-09, No Iterations 1
smoothSolver:  Solving for Rxx, Initial residual = 3.85641e-07, Final residual = 3.55842e-17, No Iterations 1
smoothSolver:  Solving for Rxy, Initial residual = 0.996429, Final residual = 6.05545e-15, No Iterations 1
smoothSolver:  Solving for Rxz, Initial residual = 9.0608e-08, Final residual = 1.48631e-16, No Iterations 1
smoothSolver:  Solving for Ryy, Initial residual = 3.7235e-07, Final residual = 4.11864e-17, No Iterations 1
smoothSolver:  Solving for Ryz, Initial residual = 0.994604, Final residual = 6.04611e-15, No Iterations 1
smoothSolver:  Solving for Rzz, Initial residual = 7.05331e-07, Final residual = 4.31993e-17, No Iterations 1
ExecutionTime = 1468.26 s  ClockTime = 1469 s

Time = 13

smoothSolver:  Solving for Ux, Initial residual = 0.103311, Final residual = 0.00372609, No Iterations 1
smoothSolver:  Solving for Uy, Initial residual = 0.00345981, Final residual = 0.000110237, No Iterations 1
smoothSolver:  Solving for Uz, Initial residual = 0.103534, Final residual = 0.0037448, No Iterations 1
GAMG:  Solving for p, Initial residual = 0.225325, Final residual = 0.0217873, No Iterations 16
GAMG:  Solving for p, Initial residual = 0.0343147, Final residual = 0.00342438, No Iterations 73
GAMG:  Solving for p, Initial residual = 0.00847414, Final residual = 0.000825097, No Iterations 93
GAMG:  Solving for p, Initial residual = 0.0024186, Final residual = 0.000239752, No Iterations 119
GAMG:  Solving for p, Initial residual = 0.000944929, Final residual = 9.40847e-05, No Iterations 126
GAMG:  Solving for p, Initial residual = 0.000377742, Final residual = 3.76292e-05, No Iterations 144
time step continuity errors : sum local = 2.59993e-08, global = 1.54856e-09, cumulative = 3.39162e-09
smoothSolver:  Solving for f, Initial residual = 5.16213e-06, Final residual = 2.09711e-09, No Iterations 1
smoothSolver:  Solving for epsilon, Initial residual = 5.09005e-08, Final residual = 1.6062e-09, No Iterations 1
smoothSolver:  Solving for Rxx, Initial residual = 4.90777e-07, Final residual = 3.24758e-17, No Iterations 1
smoothSolver:  Solving for Rxy, Initial residual = 0.996194, Final residual = 6.02275e-15, No Iterations 1
smoothSolver:  Solving for Rxz, Initial residual = 4.33882e-08, Final residual = 1.00525e-16, No Iterations 1
smoothSolver:  Solving for Ryy, Initial residual = 4.33482e-07, Final residual = 3.38623e-17, No Iterations 1
smoothSolver:  Solving for Ryz, Initial residual = 0.994413, Final residual = 6.01345e-15, No Iterations 1
smoothSolver:  Solving for Rzz, Initial residual = 6.57571e-07, Final residual = 3.90625e-17, No Iterations 1
ExecutionTime = 1587.52 s  ClockTime = 1588 s

Time = 14

smoothSolver:  Solving for Ux, Initial residual = 0.0999433, Final residual = 0.00350339, No Iterations 1
smoothSolver:  Solving for Uy, Initial residual = 0.00343939, Final residual = 0.000111468, No Iterations 1
smoothSolver:  Solving for Uz, Initial residual = 0.100424, Final residual = 0.00355086, No Iterations 1
GAMG:  Solving for p, Initial residual = 0.210136, Final residual = 0.0208908, No Iterations 14
GAMG:  Solving for p, Initial residual = 0.0322868, Final residual = 0.00307546, No Iterations 74
GAMG:  Solving for p, Initial residual = 0.00767849, Final residual = 0.000761333, No Iterations 76
GAMG:  Solving for p, Initial residual = 0.00206965, Final residual = 0.000206409, No Iterations 107
GAMG:  Solving for p, Initial residual = 0.000780964, Final residual = 7.79547e-05, No Iterations 116
GAMG:  Solving for p, Initial residual = 0.000313585, Final residual = 3.10688e-05, No Iterations 138
time step continuity errors : sum local = 2.19994e-08, global = 1.26665e-09, cumulative = 4.65827e-09
smoothSolver:  Solving for f, Initial residual = 2.67456e-06, Final residual = 1.14453e-09, No Iterations 1
smoothSolver:  Solving for epsilon, Initial residual = 5.16034e-08, Final residual = 1.63581e-09, No Iterations 1
smoothSolver:  Solving for Rxx, Initial residual = 5.54997e-07, Final residual = 2.59191e-17, No Iterations 1
smoothSolver:  Solving for Rxy, Initial residual = 0.995998, Final residual = 5.98222e-15, No Iterations 1
smoothSolver:  Solving for Rxz, Initial residual = 1.8435e-08, Final residual = 4.61221e-17, No Iterations 1
smoothSolver:  Solving for Ryy, Initial residual = 3.92922e-07, Final residual = 2.10626e-17, No Iterations 1
smoothSolver:  Solving for Ryz, Initial residual = 0.994258, Final residual = 5.97286e-15, No Iterations 1
smoothSolver:  Solving for Rzz, Initial residual = 7.17861e-07, Final residual = 3.28327e-17, No Iterations 1
ExecutionTime = 1698.24 s  ClockTime = 1699 s

Time = 15

smoothSolver:  Solving for Ux, Initial residual = 0.0961078, Final residual = 0.00333384, No Iterations 1
smoothSolver:  Solving for Uy, Initial residual = 0.00338402, Final residual = 0.000111008, No Iterations 1
smoothSolver:  Solving for Uz, Initial residual = 0.0967087, Final residual = 0.00337825, No Iterations 1
GAMG:  Solving for p, Initial residual = 0.200613, Final residual = 0.0200203, No Iterations 13
GAMG:  Solving for p, Initial residual = 0.030979, Final residual = 0.00300017, No Iterations 68
GAMG:  Solving for p, Initial residual = 0.00755037, Final residual = 0.000739058, No Iterations 75
GAMG:  Solving for p, Initial residual = 0.00204574, Final residual = 0.000203981, No Iterations 120
GAMG:  Solving for p, Initial residual = 0.000726676, Final residual = 7.15454e-05, No Iterations 96
GAMG:  Solving for p, Initial residual = 0.000309289, Final residual = 3.06338e-05, No Iterations 90
time step continuity errors : sum local = 2.11852e-08, global = 1.02279e-09, cumulative = 5.68106e-09
smoothSolver:  Solving for f, Initial residual = 1.38461e-06, Final residual = 6.15101e-10, No Iterations 1
smoothSolver:  Solving for epsilon, Initial residual = 5.16021e-08, Final residual = 1.64906e-09, No Iterations 1
smoothSolver:  Solving for Rxx, Initial residual = 5.33049e-07, Final residual = 1.76519e-17, No Iterations 1
smoothSolver:  Solving for Rxy, Initial residual = 0.995837, Final residual = 5.93977e-15, No Iterations 1
smoothSolver:  Solving for Rxz, Initial residual = 1.46319e-08, Final residual = 3.29053e-17, No Iterations 1
smoothSolver:  Solving for Ryy, Initial residual = 2.55366e-07, Final residual = 9.66e-18, No Iterations 1
smoothSolver:  Solving for Ryz, Initial residual = 0.994116, Final residual = 5.93035e-15, No Iterations 1
smoothSolver:  Solving for Rzz, Initial residual = 7.63871e-07, Final residual = 2.51528e-17, No Iterations 1
ExecutionTime = 1801.03 s  ClockTime = 1802 s

Time = 16

smoothSolver:  Solving for Ux, Initial residual = 0.0922598, Final residual = 0.00319069, No Iterations 1
smoothSolver:  Solving for Uy, Initial residual = 0.00325754, Final residual = 0.000108109, No Iterations 1
smoothSolver:  Solving for Uz, Initial residual = 0.0927277, Final residual = 0.00323403, No Iterations 1
GAMG:  Solving for p, Initial residual = 0.194592, Final residual = 0.0191739, No Iterations 13
GAMG:  Solving for p, Initial residual = 0.0300174, Final residual = 0.0029458, No Iterations 61
GAMG:  Solving for p, Initial residual = 0.00755691, Final residual = 0.000753784, No Iterations 62
GAMG:  Solving for p, Initial residual = 0.00209729, Final residual = 0.000208065, No Iterations 78
GAMG:  Solving for p, Initial residual = 0.000725128, Final residual = 7.19392e-05, No Iterations 86
GAMG:  Solving for p, Initial residual = 0.000289852, Final residual = 2.86957e-05, No Iterations 83
time step continuity errors : sum local = 1.89075e-08, global = 5.36607e-10, cumulative = 6.21767e-09
smoothSolver:  Solving for f, Initial residual = 7.16183e-07, Final residual = 3.22433e-10, No Iterations 1
smoothSolver:  Solving for epsilon, Initial residual = 5.07398e-08, Final residual = 1.63564e-09, No Iterations 1
smoothSolver:  Solving for Rxx, Initial residual = 3.71374e-07, Final residual = 8.59033e-18, No Iterations 1
smoothSolver:  Solving for Rxy, Initial residual = 0.995696, Final residual = 5.88071e-15, No Iterations 1
smoothSolver:  Solving for Rxz, Initial residual = 3.06932e-05, Final residual = 6.36141e-17, No Iterations 1
smoothSolver:  Solving for Ryy, Initial residual = 1.23698e-07, Final residual = 3.0962e-18, No Iterations 1
smoothSolver:  Solving for Ryz, Initial residual = 0.993906, Final residual = 5.87095e-15, No Iterations 1
smoothSolver:  Solving for Rzz, Initial residual = 6.37909e-07, Final residual = 1.44115e-17, No Iterations 1
ExecutionTime = 1885.64 s  ClockTime = 1886 s

Time = 17

smoothSolver:  Solving for Ux, Initial residual = 0.0884136, Final residual = 0.00307457, No Iterations 1
smoothSolver:  Solving for Uy, Initial residual = 0.00306091, Final residual = 0.000102945, No Iterations 1
smoothSolver:  Solving for Uz, Initial residual = 0.088798, Final residual = 0.0031078, No Iterations 1
GAMG:  Solving for p, Initial residual = 0.191279, Final residual = 0.0189828, No Iterations 13
GAMG:  Solving for p, Initial residual = 0.0296873, Final residual = 0.00293877, No Iterations 63
GAMG:  Solving for p, Initial residual = 0.00773744, Final residual = 0.000772116, No Iterations 74
GAMG:  Solving for p, Initial residual = 0.00219876, Final residual = 0.000217698, No Iterations 95
GAMG:  Solving for p, Initial residual = 0.000771188, Final residual = 7.62429e-05, No Iterations 93
GAMG:  Solving for p, Initial residual = 0.000320218, Final residual = 3.17358e-05, No Iterations 98
time step continuity errors : sum local = 1.99242e-08, global = -8.92409e-10, cumulative = 5.32526e-09
smoothSolver:  Solving for f, Initial residual = 3.70161e-07, Final residual = 1.67286e-10, No Iterations 1
smoothSolver:  Solving for epsilon, Initial residual = 4.72913e-08, Final residual = 1.53935e-09, No Iterations 1
smoothSolver:  Solving for Rxx, Initial residual = 1.57554e-07, Final residual = 1.60176e-17, No Iterations 1
smoothSolver:  Solving for Rxy, Initial residual = 0.99549, Final residual = 5.82329e-15, No Iterations 1
smoothSolver:  Solving for Rxz, Initial residual = 8.61607e-09, Final residual = 8.61607e-09, No Iterations 0
smoothSolver:  Solving for Ryy, Initial residual = 4.22601e-08, Final residual = 1.51037e-17, No Iterations 1
smoothSolver:  Solving for Ryz, Initial residual = 0.909179, Final residual = 5.32056e-15, No Iterations 1
smoothSolver:  Solving for Rzz, Initial residual = 2.98346e-07, Final residual = 1.75226e-17, No Iterations 1
ExecutionTime = 1980.07 s  ClockTime = 1981 s

Time = 18

smoothSolver:  Solving for Ux, Initial residual = 0.0851203, Final residual = 0.00298861, No Iterations 1
smoothSolver:  Solving for Uy, Initial residual = 0.00282032, Final residual = 9.58197e-05, No Iterations 1
smoothSolver:  Solving for Uz, Initial residual = 0.0816227, Final residual = 0.00288265, No Iterations 1
GAMG:  Solving for p, Initial residual = 0.192833, Final residual = 0.0191371, No Iterations 13
GAMG:  Solving for p, Initial residual = 0.0301659, Final residual = 0.00293101, No Iterations 65
GAMG:  Solving for p, Initial residual = 0.00802189, Final residual = 0.000785688, No Iterations 77
GAMG:  Solving for p, Initial residual = 0.00228586, Final residual = 0.000224602, No Iterations 103
GAMG:  Solving for p, Initial residual = 0.000831037, Final residual = 8.24821e-05, No Iterations 97
GAMG:  Solving for p, Initial residual = 0.000341711, Final residual = 3.40314e-05, No Iterations 114
time step continuity errors : sum local = 2.00896e-08, global = -1.02428e-09, cumulative = 4.30098e-09
smoothSolver:  Solving for f, Initial residual = 1.91358e-07, Final residual = 8.66677e-11, No Iterations 1
smoothSolver:  Solving for epsilon, Initial residual = 3.33634e-08, Final residual = 1.09889e-09, No Iterations 1
smoothSolver:  Solving for Rxx, Initial residual = 1.05407e-06, Final residual = 1.58383e-18, No Iterations 1
smoothSolver:  Solving for Rxy, Initial residual = 0.788628, Final residual = 4.55943e-15, No Iterations 1
smoothSolver:  Solving for Rxz, Initial residual = 6.84573e-05, Final residual = 1.79851e-17, No Iterations 1
smoothSolver:  Solving for Ryy, Initial residual = 5.54287e-08, Final residual = 1.19281e-18, No Iterations 1
smoothSolver:  Solving for Ryz, Initial residual = 0.482608, Final residual = 2.79078e-15, No Iterations 1
smoothSolver:  Solving for Rzz, Initial residual = 1.72345e-06, Final residual = 2.10751e-18, No Iterations 1
ExecutionTime = 2080.56 s  ClockTime = 2081 s

Time = 19

smoothSolver:  Solving for Ux, Initial residual = 0.0758315, Final residual = 0.00271236, No Iterations 1
smoothSolver:  Solving for Uy, Initial residual = 0.00257165, Final residual = 8.89051e-05, No Iterations 1
smoothSolver:  Solving for Uz, Initial residual = 0.0504166, Final residual = 0.00180351, No Iterations 1
GAMG:  Solving for p, Initial residual = 0.197563, Final residual = 0.0196791, No Iterations 13
GAMG:  Solving for p, Initial residual = 0.0318754, Final residual = 0.00313828, No Iterations 63
GAMG:  Solving for p, Initial residual = 0.00855552, Final residual = 0.000835474, No Iterations 75
GAMG:  Solving for p, Initial residual = 0.00243353, Final residual = 0.000239867, No Iterations 93
GAMG:  Solving for p, Initial residual = 0.000864979, Final residual = 8.58746e-05, No Iterations 88
GAMG:  Solving for p, Initial residual = 0.000351379, Final residual = 3.45686e-05, No Iterations 96
time step continuity errors : sum local = 1.95334e-08, global = -8.11953e-10, cumulative = 3.48902e-09
smoothSolver:  Solving for f, Initial residual = 9.89766e-08, Final residual = 4.49378e-11, No Iterations 1
smoothSolver:  Solving for epsilon, Initial residual = 1.76809e-08, Final residual = 5.90684e-10, No Iterations 1
smoothSolver:  Solving for Rxx, Initial residual = 3.65794e-08, Final residual = 5.50546e-13, No Iterations 1
smoothSolver:  Solving for Rxy, Initial residual = 0.307312, Final residual = 3.96522e-13, No Iterations 1
smoothSolver:  Solving for Rxz, Initial residual = 1.911e-06, Final residual = 5.73429e-13, No Iterations 1
smoothSolver:  Solving for Ryy, Initial residual = 5.81779e-09, Final residual = 5.81779e-09, No Iterations 0
smoothSolver:  Solving for Ryz, Initial residual = 0.113993, Final residual = 4.94474e-13, No Iterations 1
smoothSolver:  Solving for Rzz, Initial residual = 6.64458e-08, Final residual = 5.49069e-13, No Iterations 1
ExecutionTime = 2173.42 s  ClockTime = 2174 s

Time = 20

smoothSolver:  Solving for Ux, Initial residual = 0.0589057, Final residual = 0.00219265, No Iterations 1
smoothSolver:  Solving for Uy, Initial residual = 0.00235018, Final residual = 8.23008e-05, No Iterations 1
smoothSolver:  Solving for Uz, Initial residual = 0.031926, Final residual = 0.00114931, No Iterations 1
GAMG:  Solving for p, Initial residual = 0.201142, Final residual = 0.0199176, No Iterations 13
GAMG:  Solving for p, Initial residual = 0.0332801, Final residual = 0.00330382, No Iterations 61
GAMG:  Solving for p, Initial residual = 0.00892733, Final residual = 0.000885002, No Iterations 68
GAMG:  Solving for p, Initial residual = 0.00254218, Final residual = 0.000249483, No Iterations 91
GAMG:  Solving for p, Initial residual = 0.000875187, Final residual = 8.71465e-05, No Iterations 88
GAMG:  Solving for p, Initial residual = 0.000352366, Final residual = 3.52022e-05, No Iterations 85
time step continuity errors : sum local = 1.96117e-08, global = -6.80709e-10, cumulative = 2.80831e-09
smoothSolver:  Solving for f, Initial residual = 1.29989e-07, Final residual = 2.03825e-10, No Iterations 1
smoothSolver:  Solving for epsilon, Initial residual = 9.98736e-09, Final residual = 9.98736e-09, No Iterations 0
smoothSolver:  Solving for Rxx, Initial residual = 7.53534e-07, Final residual = 4.14531e-15, No Iterations 1
smoothSolver:  Solving for Rxy, Initial residual = 0.03963, Final residual = 4.23222e-15, No Iterations 1
smoothSolver:  Solving for Rxz, Initial residual = 0.000516239, Final residual = 4.19028e-15, No Iterations 1
smoothSolver:  Solving for Ryy, Initial residual = 3.64085e-07, Final residual = 5.34443e-15, No Iterations 1
smoothSolver:  Solving for Ryz, Initial residual = 0.0120989, Final residual = 4.18168e-15, No Iterations 1
smoothSolver:  Solving for Rzz, Initial residual = 1.79764e-06, Final residual = 4.14414e-15, No Iterations 1
ExecutionTime = 2262.2 s  ClockTime = 2263 s

Time = 21

smoothSolver:  Solving for Ux, Initial residual = 0.0116994, Final residual = 0.000459879, No Iterations 1
smoothSolver:  Solving for Uy, Initial residual = 0.00211942, Final residual = 7.56966e-05, No Iterations 1
smoothSolver:  Solving for Uz, Initial residual = 0.00309853, Final residual = 0.000114188, No Iterations 1
GAMG:  Solving for p, Initial residual = 0.201826, Final residual = 0.0198459, No Iterations 13
GAMG:  Solving for p, Initial residual = 0.0649095, Final residual = 0.00649043, No Iterations 33
GAMG:  Solving for p, Initial residual = 0.0182808, Final residual = 0.00181959, No Iterations 50
GAMG:  Solving for p, Initial residual = 0.00519876, Final residual = 0.000505926, No Iterations 68
GAMG:  Solving for p, Initial residual = 0.00155159, Final residual = 0.000153635, No Iterations 90
GAMG:  Solving for p, Initial residual = 0.000512837, Final residual = 5.03561e-05, No Iterations 101
time step continuity errors : sum local = 3.10642e-08, global = -1.04926e-09, cumulative = 1.75906e-09
smoothSolver:  Solving for f, Initial residual = 1.5057e-07, Final residual = 2.96178e-10, No Iterations 1
smoothSolver:  Solving for epsilon, Initial residual = 9.84043e-09, Final residual = 9.84043e-09, No Iterations 0
smoothSolver:  Solving for Rxx, Initial residual = 5.0082e-06, Final residual = 3.91426e-09, No Iterations 1
smoothSolver:  Solving for Rxy, Initial residual = 0.00610448, Final residual = 3.89595e-09, No Iterations 1
smoothSolver:  Solving for Rxz, Initial residual = 0.000260359, Final residual = 3.92156e-09, No Iterations 1
smoothSolver:  Solving for Ryy, Initial residual = 7.51519e-07, Final residual = 4.12061e-09, No Iterations 1
smoothSolver:  Solving for Ryz, Initial residual = 0.00195186, Final residual = 3.91098e-09, No Iterations 1
smoothSolver:  Solving for Rzz, Initial residual = 8.74491e-06, Final residual = 3.91396e-09, No Iterations 1
ExecutionTime = 2341.69 s  ClockTime = 2343 s

Time = 22

smoothSolver:  Solving for Ux, Initial residual = 0.00260836, Final residual = 6.19563e-05, No Iterations 2
smoothSolver:  Solving for Uy, Initial residual = 0.00168656, Final residual = 6.41648e-05, No Iterations 1
smoothSolver:  Solving for Uz, Initial residual = 0.00123343, Final residual = 6.92697e-05, No Iterations 1
GAMG:  Solving for p, Initial residual = 0.208988, Final residual = 0.0208055, No Iterations 12
GAMG:  Solving for p, Initial residual = 0.10035, Final residual = 0.00985756, No Iterations 18
GAMG:  Solving for p, Initial residual = 0.0331225, Final residual = 0.00330867, No Iterations 34
GAMG:  Solving for p, Initial residual = 0.00993147, Final residual = 0.000979623, No Iterations 52
GAMG:  Solving for p, Initial residual = 0.00287344, Final residual = 0.000283634, No Iterations 72
GAMG:  Solving for p, Initial residual = 0.000872083, Final residual = 8.71805e-05, No Iterations 78
time step continuity errors : sum local = 6.11803e-08, global = -1.64445e-09, cumulative = 1.14611e-10
smoothSolver:  Solving for f, Initial residual = 1.91104e-07, Final residual = 3.34476e-09, No Iterations 1
smoothSolver:  Solving for epsilon, Initial residual = 1.41226e-08, Final residual = 3.39241e-10, No Iterations 1
smoothSolver:  Solving for Rxx, Initial residual = 0.000489289, Final residual = 4.20047e-10, No Iterations 1
smoothSolver:  Solving for Rxy, Initial residual = 0.333245, Final residual = 1.56244e-13, No Iterations 1
smoothSolver:  Solving for Rxz, Initial residual = 0.333367, Final residual = 1.56098e-13, No Iterations 1
smoothSolver:  Solving for Ryy, Initial residual = 0.0554631, Final residual = 3.82539e-10, No Iterations 1
smoothSolver:  Solving for Ryz, Initial residual = 0.333244, Final residual = 1.56221e-13, No Iterations 1
smoothSolver:  Solving for Rzz, Initial residual = 0.981316, Final residual = 7.8457e-12, No Iterations 1
ExecutionTime = 2404.92 s  ClockTime = 2406 s

Time = 23

smoothSolver:  Solving for Ux, Initial residual = 0.00078112, Final residual = 2.08338e-05, No Iterations 2
smoothSolver:  Solving for Uy, Initial residual = 0.00113003, Final residual = 5.02808e-05, No Iterations 1
smoothSolver:  Solving for Uz, Initial residual = 0.000234183, Final residual = 1.21063e-05, No Iterations 1
GAMG:  Solving for p, Initial residual = 0.228788, Final residual = 0.0221593, No Iterations 12
GAMG:  Solving for p, Initial residual = 0.103346, Final residual = 0.0101192, No Iterations 20
GAMG:  Solving for p, Initial residual = 0.061988, Final residual = 0.00606792, No Iterations 13
GAMG:  Solving for p, Initial residual = 0.0219807, Final residual = 0.00214957, No Iterations 37
GAMG:  Solving for p, Initial residual = 0.00664773, Final residual = 0.000658331, No Iterations 53
GAMG:  Solving for p, Initial residual = 0.00193729, Final residual = 0.000193329, No Iterations 69
time step continuity errors : sum local = 1.50855e-07, global = 2.43307e-09, cumulative = 2.54769e-09
smoothSolver:  Solving for f, Initial residual = 2.90155e-07, Final residual = 3.55745e-09, No Iterations 1
smoothSolver:  Solving for epsilon, Initial residual = 1.09696e-06, Final residual = 3.73727e-08, No Iterations 1
smoothSolver:  Solving for Rxx, Initial residual = 0.00839665, Final residual = 1.4054e-07, No Iterations 1
smoothSolver:  Solving for Rxy, Initial residual = 0.333334, Final residual = 8.82395e-12, No Iterations 1
smoothSolver:  Solving for Rxz, Initial residual = 0.333346, Final residual = 8.82721e-12, No Iterations 1
smoothSolver:  Solving for Ryy, Initial residual = 0.392734, Final residual = 8.8223e-08, No Iterations 1
smoothSolver:  Solving for Ryz, Initial residual = 0.33336, Final residual = 8.82412e-12, No Iterations 1
smoothSolver:  Solving for Rzz, Initial residual = 0.990545, Final residual = 1.35458e-09, No Iterations 1
ExecutionTime = 2456.74 s  ClockTime = 2458 s

Time = 24

smoothSolver:  Solving for Ux, Initial residual = 0.000371675, Final residual = 1.09505e-05, No Iterations 2
smoothSolver:  Solving for Uy, Initial residual = 1.07364e-05, Final residual = 7.60989e-07, No Iterations 1
smoothSolver:  Solving for Uz, Initial residual = 0.000359615, Final residual = 3.04476e-05, No Iterations 1
GAMG:  Solving for p, Initial residual = 0.234085, Final residual = 0.0224735, No Iterations 12
GAMG:  Solving for p, Initial residual = 0.933975, Final residual = 0.00898363, No Iterations 2
GAMG:  Solving for p, Initial residual = 0.0672468, Final residual = 0.00193013, No Iterations 2
GAMG:  Solving for p, Initial residual = 0.00986928, Final residual = 0.000938121, No Iterations 3
GAMG:  Solving for p, Initial residual = 0.00223331, Final residual = 0.000220967, No Iterations 25
GAMG:  Solving for p, Initial residual = 0.000501783, Final residual = 5.00063e-05, No Iterations 60
time step continuity errors : sum local = 1.027e-06, global = -3.24667e-09, cumulative = -6.98986e-10
smoothSolver:  Solving for f, Initial residual = 2.32024e-06, Final residual = 1.30657e-08, No Iterations 1
smoothSolver:  Solving for epsilon, Initial residual = 6.07496e-11, Final residual = 6.07496e-11, No Iterations 0
smoothSolver:  Solving for Rxx, Initial residual = 0.30418, Final residual = 2.01478e-06, No Iterations 1
smoothSolver:  Solving for Rxy, Initial residual = 0.33334, Final residual = 3.41953e-10, No Iterations 1
smoothSolver:  Solving for Rxz, Initial residual = 0.336294, Final residual = 3.43106e-10, No Iterations 1
smoothSolver:  Solving for Ryy, Initial residual = 0.775781, Final residual = 6.33513e-07, No Iterations 1
smoothSolver:  Solving for Ryz, Initial residual = 0.333338, Final residual = 3.41968e-10, No Iterations 1
smoothSolver:  Solving for Rzz, Initial residual = 0.992618, Final residual = 1.78354e-08, No Iterations 1
ExecutionTime = 2490.06 s  ClockTime = 2491 s

Time = 25

smoothSolver:  Solving for Ux, Initial residual = 2.47293e-06, Final residual = 5.60307e-08, No Iterations 2
smoothSolver:  Solving for Uy, Initial residual = 6.05825e-07, Final residual = 3.68237e-08, No Iterations 1
smoothSolver:  Solving for Uz, Initial residual = 1.277e-05, Final residual = 5.88068e-07, No Iterations 1
GAMG:  Solving for p, Initial residual = 0.886846, Final residual = 0.0632947, No Iterations 2
GAMG:  Solving for p, Initial residual = 0.440214, Final residual = 0.0380522, No Iterations 1
GAMG:  Solving for p, Initial residual = 0.11543, Final residual = 0.00923002, No Iterations 2
GAMG:  Solving for p, Initial residual = 0.0306506, Final residual = 0.00242592, No Iterations 4
GAMG:  Solving for p, Initial residual = 0.0106668, Final residual = 0.0010074, No Iterations 3
GAMG:  Solving for p, Initial residual = 0.00366012, Final residual = 0.00033326, No Iterations 5
time step continuity errors : sum local = 0.000259489, global = -9.73927e-09, cumulative = -1.04383e-08
smoothSolver:  Solving for f, Initial residual = 1.80076e-06, Final residual = 1.26329e-08, No Iterations 1
smoothSolver:  Solving for epsilon, Initial residual = 0.94964, Final residual = 1.58672e-10, No Iterations 1
bounding epsilon, min: -75.6031 max: 2004.04 average: 0.00130053
smoothSolver:  Solving for Rxx, Initial residual = 0.700397, Final residual = 5.7703e-07, No Iterations 1
smoothSolver:  Solving for Rxy, Initial residual = 0.333333, Final residual = 2.37842e-13, No Iterations 1
smoothSolver:  Solving for Rxz, Initial residual = 0.333331, Final residual = 2.37537e-13, No Iterations 1
smoothSolver:  Solving for Ryy, Initial residual = 0.195863, Final residual = 2.18218e-06, No Iterations 1
smoothSolver:  Solving for Ryz, Initial residual = 0.335493, Final residual = 2.38198e-13, No Iterations 1
smoothSolver:  Solving for Rzz, Initial residual = 0.999892, Final residual = 2.05685e-10, No Iterations 1
ExecutionTime = 2507.54 s  ClockTime = 2508 s

Time = 26

smoothSolver:  Solving for Ux, Initial residual = 2.27484e-06, Final residual = 6.46221e-08, No Iterations 2
smoothSolver:  Solving for Uy, Initial residual = 2.77671e-06, Final residual = 8.06384e-08, No Iterations 2
smoothSolver:  Solving for Uz, Initial residual = 7.35614e-07, Final residual = 1.98203e-08, No Iterations 2
GAMG:  Solving for p, Initial residual = 0.433361, Final residual = 0.0411823, No Iterations 9
GAMG:  Solving for p, Initial residual = 0.1287, Final residual = 0.00378897, No Iterations 2
GAMG:  Solving for p, Initial residual = 0.021465, Final residual = 0.00168916, No Iterations 2
GAMG:  Solving for p, Initial residual = 0.00599467, Final residual = 0.000589844, No Iterations 28
GAMG:  Solving for p, Initial residual = 0.00266806, Final residual = 0.000258867, No Iterations 24
GAMG:  Solving for p, Initial residual = 0.000743417, Final residual = 7.33129e-05, No Iterations 42
time step continuity errors : sum local = 0.719943, global = -3.933e-07, cumulative = -4.03738e-07
smoothSolver:  Solving for f, Initial residual = 2.26708e-05, Final residual = 1.95241e-08, No Iterations 1
smoothSolver:  Solving for epsilon, Initial residual = 0.9877, Final residual = 9.18337e-05, No Iterations 1
bounding epsilon, min: -510.885 max: 7.9116e+08 average: 131.747
smoothSolver:  Solving for Rxx, Initial residual = 0.975721, Final residual = 3.1851e-09, No Iterations 1
smoothSolver:  Solving for Rxy, Initial residual = 0.333352, Final residual = 5.38703e-13, No Iterations 1
smoothSolver:  Solving for Rxz, Initial residual = 0.333404, Final residual = 5.39386e-13, No Iterations 1
smoothSolver:  Solving for Ryy, Initial residual = 0.786522, Final residual = 2.6136e-08, No Iterations 1
smoothSolver:  Solving for Ryz, Initial residual = 0.331592, Final residual = 5.37996e-13, No Iterations 1
smoothSolver:  Solving for Rzz, Initial residual = 0.999893, Final residual = 1.24775e-11, No Iterations 1
ExecutionTime = 2541.64 s  ClockTime = 2543 s

Time = 27

smoothSolver:  Solving for Ux, Initial residual = 9.9699e-05, Final residual = 2.67219e-06, No Iterations 1
smoothSolver:  Solving for Uy, Initial residual = 0.000287104, Final residual = 9.74295e-06, No Iterations 1
smoothSolver:  Solving for Uz, Initial residual = 0.000379088, Final residual = 9.69523e-06, No Iterations 1
GAMG:  Solving for p, Initial residual = 0.298568, Final residual = 0.0147458, No Iterations 1
GAMG:  Solving for p, Initial residual = 0.000266137, Final residual = 1.6608e-05, No Iterations 1
GAMG:  Solving for p, Initial residual = 8.22024e-05, Final residual = 8.18313e-06, No Iterations 3
GAMG:  Solving for p, Initial residual = 3.39343e-05, Final residual = 3.34938e-06, No Iterations 22
GAMG:  Solving for p, Initial residual = 2.11176e-05, Final residual = 2.04884e-06, No Iterations 14
GAMG:  Solving for p, Initial residual = 6.61494e-06, Final residual = 6.5694e-07, No Iterations 30
time step continuity errors : sum local = 2.7628, global = 4.18831e-06, cumulative = 3.78457e-06
smoothSolver:  Solving for f, Initial residual = 0.173054, Final residual = 1.16898e-08, No Iterations 1
smoothSolver:  Solving for epsilon, Initial residual = 0.999985, Final residual = 0.000433525, No Iterations 1
bounding epsilon, min: -5.76949e+10 max: 8.29492e+14 average: 1.85789e+08
smoothSolver:  Solving for Rxx, Initial residual = 0.99982, Final residual = 2.23873e-13, No Iterations 1
smoothSolver:  Solving for Rxy, Initial residual = 0.347746, Final residual = 1.92628e-14, No Iterations 1
smoothSolver:  Solving for Rxz, Initial residual = 0.724668, Final residual = 2.46666e-14, No Iterations 1
smoothSolver:  Solving for Ryy, Initial residual = 0.995827, Final residual = 1.64143e-12, No Iterations 1
smoothSolver:  Solving for Ryz, Initial residual = 0.347608, Final residual = 1.92935e-14, No Iterations 1
smoothSolver:  Solving for Rzz, Initial residual = 0.999864, Final residual = 5.28066e-14, No Iterations 1
ExecutionTime = 2568.99 s  ClockTime = 2570 s

Time = 28

smoothSolver:  Solving for Ux, Initial residual = 0.000104611, Final residual = 2.09672e-06, No Iterations 1
smoothSolver:  Solving for Uy, Initial residual = 0.000749385, Final residual = 1.13064e-05, No Iterations 1
smoothSolver:  Solving for Uz, Initial residual = 0.000319581, Final residual = 6.55206e-06, No Iterations 1
GAMG:  Solving for p, Initial residual = 0.0548648, Final residual = 0.00126246, No Iterations 1
GAMG:  Solving for p, Initial residual = 1.8565e-05, Final residual = 1.85634e-06, No Iterations 28
GAMG:  Solving for p, Initial residual = 3.47384e-06, Final residual = 3.46151e-07, No Iterations 177
GAMG:  Solving for p, Initial residual = 1.14819e-06, Final residual = 1.14489e-07, No Iterations 143
GAMG:  Solving for p, Initial residual = 2.91522e-07, Final residual = 2.90119e-08, No Iterations 181
GAMG:  Solving for p, Initial residual = 8.12639e-08, Final residual = 9.95476e-09, No Iterations 144
time step continuity errors : sum local = 2.12766, global = -0.0043152, cumulative = -0.00431142
smoothSolver:  Solving for f, Initial residual = 0.337348, Final residual = 9.53957e-12, No Iterations 1
smoothSolver:  Solving for epsilon, Initial residual = 0.999908, Final residual = 5.03554e-09, No Iterations 1
bounding epsilon, min: -8.08664e+16 max: 1.99594e+20 average: 6.60518e+13
smoothSolver:  Solving for Rxx, Initial residual = 1, Final residual = 1.20304e-19, No Iterations 1
smoothSolver:  Solving for Rxy, Initial residual = 0.28095, Final residual = 4.15205e-21, No Iterations 1
smoothSolver:  Solving for Rxz, Initial residual = 0.972805, Final residual = 4.65317e-21, No Iterations 1
smoothSolver:  Solving for Ryy, Initial residual = 0.999172, Final residual = 1.38564e-19, No Iterations 1
smoothSolver:  Solving for Ryz, Initial residual = 0.960605, Final residual = 2.70804e-18, No Iterations 1
smoothSolver:  Solving for Rzz, Initial residual = 1, Final residual = 2.87908e-22, No Iterations 1
ExecutionTime = 2707.14 s  ClockTime = 2708 s

Time = 29

smoothSolver:  Solving for Ux, Initial residual = 0.0075412, Final residual = 0.00018992, No Iterations 1
smoothSolver:  Solving for Uy, Initial residual = 0.000522168, Final residual = 1.53599e-05, No Iterations 1
smoothSolver:  Solving for Uz, Initial residual = 0.0279522, Final residual = 0.000758046, No Iterations 1
GAMG:  Solving for p, Initial residual = 0.00368728, Final residual = 0.000328244, No Iterations 1
GAMG:  Solving for p, Initial residual = 2.74563e-05, Final residual = 2.25926e-06, No Iterations 3
GAMG:  Solving for p, Initial residual = 4.53715e-06, Final residual = 4.35263e-07, No Iterations 48
GAMG:  Solving for p, Initial residual = 1.43019e-05, Final residual = 6.48279e-07, No Iterations 1
GAMG:  Solving for p, Initial residual = 2.51223e-06, Final residual = 2.44467e-07, No Iterations 31
GAMG:  Solving for p, Initial residual = 1.14881e-06, Final residual = 1.13531e-07, No Iterations 35
time step continuity errors : sum local = 98.1423, global = 0.0102931, cumulative = 0.00598169
smoothSolver:  Solving for f, Initial residual = 0.345863, Final residual = 1.65823e-14, No Iterations 1
smoothSolver:  Solving for epsilon, Initial residual = 0.999693, Final residual = 1.29636e-10, No Iterations 1
bounding epsilon, min: -8.12523e+20 max: 2.66286e+25 average: 4.40667e+18
smoothSolver:  Solving for Rxx, Initial residual = 0.999986, Final residual = 2.43621e-24, No Iterations 1
smoothSolver:  Solving for Rxy, Initial residual = 0.999832, Final residual = 5.80733e-22, No Iterations 1
smoothSolver:  Solving for Rxz, Initial residual = 0.999776, Final residual = 7.75953e-17, No Iterations 1
smoothSolver:  Solving for Ryy, Initial residual = 1, Final residual = 2.04515e-20, No Iterations 1
smoothSolver:  Solving for Ryz, Initial residual = 0.999895, Final residual = 7.06765e-26, No Iterations 1
smoothSolver:  Solving for Rzz, Initial residual = 0.999714, Final residual = 7.13288e-22, No Iterations 1
ExecutionTime = 2743.3 s  ClockTime = 2744 s

Time = 30

smoothSolver:  Solving for Ux, Initial residual = 6.6347e-17, Final residual = 6.6347e-17, No Iterations 0
smoothSolver:  Solving for Uy, Initial residual = 6.1309e-21, Final residual = 6.1309e-21, No Iterations 0
smoothSolver:  Solving for Uz, Initial residual = 1.53743e-20, Final residual = 1.53743e-20, No Iterations 0
GAMG:  Solving for p, Initial residual = 0.000912791, Final residual = 8.26109e-05, No Iterations 4
GAMG:  Solving for p, Initial residual = 3.12498e-07, Final residual = 2.61027e-08, No Iterations 4
GAMG:  Solving for p, Initial residual = 5.85957e-08, Final residual = 9.96509e-09, No Iterations 20
GAMG:  Solving for p, Initial residual = 2.42734e-08, Final residual = 9.63593e-09, No Iterations 2
GAMG:  Solving for p, Initial residual = 1.14479e-08, Final residual = 8.90839e-09, No Iterations 1
GAMG:  Solving for p, Initial residual = 9.32539e-09, Final residual = 9.32539e-09, No Iterations 0
time step continuity errors : sum local = 4.13819e+24, global = -1.29775e+20, cumulative = -1.29775e+20
smoothSolver:  Solving for f, Initial residual = 0.336144, Final residual = 1.32859e-16, No Iterations 1
smoothSolver:  Solving for epsilon, Initial residual = 1, Final residual = 0.0312034, No Iterations 2
bounding epsilon, min: -8.88368e+41 max: 2.84055e+43 average: 1.14013e+37
smoothSolver:  Solving for Rxx, Initial residual = 0.993887, Final residual = 1.42165e-16, No Iterations 1
smoothSolver:  Solving for Rxy, Initial residual = 0.338098, Final residual = 4.93293e-20, No Iterations 1
smoothSolver:  Solving for Rxz, Initial residual = 0.342535, Final residual = 2.9352e-20, No Iterations 1
smoothSolver:  Solving for Ryy, Initial residual = 0.999997, Final residual = 1.27808e-17, No Iterations 1
smoothSolver:  Solving for Ryz, Initial residual = 0.347923, Final residual = 1.46379e-19, No Iterations 1
smoothSolver:  Solving for Rzz, Initial residual = 0.999996, Final residual = 1.98947e-17, No Iterations 1
ExecutionTime = 2767.92 s  ClockTime = 2769 s

Time = 31

smoothSolver:  Solving for Ux, Initial residual = 0.459261, Final residual = 0.00179261, No Iterations 1
smoothSolver:  Solving for Uy, Initial residual = 0.21481, Final residual = 0.0119784, No Iterations 1
smoothSolver:  Solving for Uz, Initial residual = 0.395472, Final residual = 0.00447432, No Iterations 1
GAMG:  Solving for p, Initial residual = 1, Final residual = 1.48347e-08, No Iterations 1
GAMG:  Solving for p, Initial residual = 1, Final residual = 4.27032e-11, No Iterations 1
GAMG:  Solving for p, Initial residual = 0.0469911, Final residual = 2.00704e-12, No Iterations 1
GAMG:  Solving for p, Initial residual = 0.0107059, Final residual = 4.57272e-13, No Iterations 1
GAMG:  Solving for p, Initial residual = 0.00304195, Final residual = 1.29914e-13, No Iterations 1
GAMG:  Solving for p, Initial residual = 0.00094099, Final residual = 4.08873e-14, No Iterations 1
time step continuity errors : sum local = 2.82634e+36, global = 6.38407e+22, cumulative = 6.37109e+22
smoothSolver:  Solving for f, Initial residual = 0.33994, Final residual = 3.23398e-18, No Iterations 1
smoothSolver:  Solving for epsilon, Initial residual = 1, Final residual = 0.0457138, No Iterations 1
bounding epsilon, min: -6.33554e+54 max: 3.72565e+55 average: 7.48159e+48
smoothSolver:  Solving for Rxx, Initial residual = 0.619335, Final residual = 8.8185e-17, No Iterations 1
smoothSolver:  Solving for Rxy, Initial residual = 0.991883, Final residual = 1.76493e-23, No Iterations 1
smoothSolver:  Solving for Rxz, Initial residual = 0.999849, Final residual = 1.98014e-23, No Iterations 1
smoothSolver:  Solving for Ryy, Initial residual = 0.660797, Final residual = 5.29134e-22, No Iterations 1
smoothSolver:  Solving for Ryz, Initial residual = 0.98813, Final residual = 2.59925e-23, No Iterations 1
smoothSolver:  Solving for Rzz, Initial residual = 0.293787, Final residual = 1.52281e-21, No Iterations 1
ExecutionTime = 2783.26 s  ClockTime = 2784 s

Time = 32

smoothSolver:  Solving for Ux, Initial residual = 0.5, Final residual = 0.000110924, No Iterations 1
smoothSolver:  Solving for Uy, Initial residual = 0.5, Final residual = 0.000110924, No Iterations 1
smoothSolver:  Solving for Uz, Initial residual = 0.5, Final residual = 0.000110924, No Iterations 1
GAMG:  Solving for p, Initial residual = 1, Final residual = 0.0989648, No Iterations 42
GAMG:  Solving for p, Initial residual = 5.01406e-05, Final residual = 4.7476e-06, No Iterations 1
GAMG:  Solving for p, Initial residual = 5.95602e-06, Final residual = 5.93076e-07, No Iterations 33
GAMG:  Solving for p, Initial residual = 1.41729e-06, Final residual = 1.41418e-07, No Iterations 69
GAMG:  Solving for p, Initial residual = 3.23021e-07, Final residual = 3.18063e-08, No Iterations 77
GAMG:  Solving for p, Initial residual = 7.97413e-08, Final residual = 9.85952e-09, No Iterations 63
time step continuity errors : sum local = 4.70353e+51, global = -2.14537e+48, cumulative = -2.14537e+48
smoothSolver:  Solving for f, Initial residual = 0.338995, Final residual = 2.04892e-18, No Iterations 1
smoothSolver:  Solving for epsilon, Initial residual = 1, Final residual = 0.0352599, No Iterations 1
bounding epsilon, min: -1.74142e+65 max: 7.52959e+65 average: 2.28275e+59
smoothSolver:  Solving for Rxx, Initial residual = 0.000793746, Final residual = 9.89778e-23, No Iterations 1
smoothSolver:  Solving for Rxy, Initial residual = 0.333196, Final residual = 5.69097e-26, No Iterations 1
smoothSolver:  Solving for Rxz, Initial residual = 0.333334, Final residual = 1.24153e-28, No Iterations 1
smoothSolver:  Solving for Ryy, Initial residual = 0.00113026, Final residual = 1.50938e-22, No Iterations 1
smoothSolver:  Solving for Ryz, Initial residual = 0.333515, Final residual = 1.6113e-25, No Iterations 1
smoothSolver:  Solving for Rzz, Initial residual = 0.999804, Final residual = 4.1943e-24, No Iterations 1
ExecutionTime = 2850.09 s  ClockTime = 2851 s

Time = 33

smoothSolver:  Solving for Ux, Initial residual = 0.48655, Final residual = 0.00427761, No Iterations 1
smoothSolver:  Solving for Uy, Initial residual = 0.408732, Final residual = 0.0111962, No Iterations 1
smoothSolver:  Solving for Uz, Initial residual = 0.408323, Final residual = 0.00150622, No Iterations 1
GAMG:  Solving for p, Initial residual = 1, Final residual = 0.0994354, No Iterations 68
GAMG:  Solving for p, Initial residual = 0.000113398, Final residual = 1.80693e-06, No Iterations 1
GAMG:  Solving for p, Initial residual = 2.41103e-06, Final residual = 2.40189e-07, No Iterations 103
GAMG:  Solving for p, Initial residual = 1.52653e-06, Final residual = 1.52061e-07, No Iterations 162
GAMG:  Solving for p, Initial residual = 5.08207e-07, Final residual = 5.03604e-08, No Iterations 40
GAMG:  Solving for p, Initial residual = 1.49507e-07, Final residual = 1.48332e-08, No Iterations 224
time step continuity errors : sum local = 3.78757e+51, global = 2.05772e+51, cumulative = 2.05558e+51
smoothSolver:  Solving for f, Initial residual = 0.303201, Final residual = 1.92812e-17, No Iterations 1
smoothSolver:  Solving for epsilon, Initial residual = 0.968156, Final residual = 0.00766888, No Iterations 1
bounding epsilon, min: -6.23315e+64 max: 1.80477e+67 average: 3.62676e+60
smoothSolver:  Solving for Rxx, Initial residual = 1.91021e-10, Final residual = 1.91021e-10, No Iterations 0
smoothSolver:  Solving for Rxy, Initial residual = 0.333043, Final residual = 8.68276e-27, No Iterations 1
smoothSolver:  Solving for Rxz, Initial residual = 0.310899, Final residual = 7.93135e-23, No Iterations 1
smoothSolver:  Solving for Ryy, Initial residual = 0.00354187, Final residual = 1.42371e-24, No Iterations 1
smoothSolver:  Solving for Ryz, Initial residual = 0.332806, Final residual = 2.66078e-27, No Iterations 1
smoothSolver:  Solving for Rzz, Initial residual = 1, Final residual = 1.54496e-16, No Iterations 1
ExecutionTime = 2974.35 s  ClockTime = 2975 s

Time = 34

smoothSolver:  Solving for Ux, Initial residual = 0.42674, Final residual = 0.0099217, No Iterations 1
smoothSolver:  Solving for Uy, Initial residual = 0.473051, Final residual = 0.01617, No Iterations 1
smoothSolver:  Solving for Uz, Initial residual = 0.474443, Final residual = 0.00816635, No Iterations 1
GAMG:  Solving for p, Initial residual = 0.0614981, Final residual = 0.00506821, No Iterations 2
GAMG:  Solving for p, Initial residual = 0.000730535, Final residual = 7.25382e-05, No Iterations 53
GAMG:  Solving for p, Initial residual = 0.000358994, Final residual = 3.54397e-05, No Iterations 27
GAMG:  Solving for p, Initial residual = 0.000100371, Final residual = 9.97138e-06, No Iterations 68
GAMG:  Solving for p, Initial residual = 3.77754e-05, Final residual = 3.76469e-06, No Iterations 68
GAMG:  Solving for p, Initial residual = 1.27731e-05, Final residual = 1.2712e-06, No Iterations 93
time step continuity errors : sum local = 2.61712e+51, global = -3.6342e+48, cumulative = 2.05194e+51
smoothSolver:  Solving for f, Initial residual = 0.328689, Final residual = 2.8785e-17, No Iterations 1
smoothSolver:  Solving for epsilon, Initial residual = 0.474266, Final residual = 0.000968212, No Iterations 1
bounding epsilon, min: -2.66908e+64 max: 9.50762e+66 average: 3.23765e+60
smoothSolver:  Solving for Rxx, Initial residual = 2.42784e-12, Final residual = 2.42784e-12, No Iterations 0
smoothSolver:  Solving for Rxy, Initial residual = 0.265339, Final residual = 8.47771e-24, No Iterations 1
smoothSolver:  Solving for Rxz, Initial residual = 0.662608, Final residual = 8.90151e-17, No Iterations 1
smoothSolver:  Solving for Ryy, Initial residual = 8.86657e-11, Final residual = 8.86657e-11, No Iterations 0
smoothSolver:  Solving for Ryz, Initial residual = 0.220128, Final residual = 5.37539e-24, No Iterations 1
smoothSolver:  Solving for Rzz, Initial residual = 0.000214665, Final residual = 4.87273e-23, No Iterations 1
ExecutionTime = 3045.71 s  ClockTime = 3047 s

Time = 35

smoothSolver:  Solving for Ux, Initial residual = 0.226319, Final residual = 0.00599721, No Iterations 1
smoothSolver:  Solving for Uy, Initial residual = 0.411897, Final residual = 0.00739866, No Iterations 1
smoothSolver:  Solving for Uz, Initial residual = 0.504838, Final residual = 0.0190996, No Iterations 1
GAMG:  Solving for p, Initial residual = 0.0042733, Final residual = 0.000348304, No Iterations 2
GAMG:  Solving for p, Initial residual = 0.000455561, Final residual = 4.45735e-05, No Iterations 61
GAMG:  Solving for p, Initial residual = 0.000226944, Final residual = 2.2261e-05, No Iterations 20
GAMG:  Solving for p, Initial residual = 5.93951e-05, Final residual = 5.92648e-06, No Iterations 47
GAMG:  Solving for p, Initial residual = 2.21901e-05, Final residual = 2.20312e-06, No Iterations 46
GAMG:  Solving for p, Initial residual = 7.80542e-06, Final residual = 7.54374e-07, No Iterations 65
time step continuity errors : sum local = 1.91067e+51, global = 1.9277e+50, cumulative = 2.24471e+51
smoothSolver:  Solving for f, Initial residual = 0.324035, Final residual = 1.18292e-16, No Iterations 1
smoothSolver:  Solving for epsilon, Initial residual = 0.297257, Final residual = 0.000789185, No Iterations 1
bounding epsilon, min: -3.98959e+64 max: 5.72119e+66 average: 2.87184e+60
smoothSolver:  Solving for Rxx, Initial residual = 1.90292e-12, Final residual = 1.90292e-12, No Iterations 0
smoothSolver:  Solving for Rxy, Initial residual = 0.305136, Final residual = 3.51904e-25, No Iterations 1
smoothSolver:  Solving for Rxz, Initial residual = 0.0679966, Final residual = 9.66187e-18, No Iterations 1
smoothSolver:  Solving for Ryy, Initial residual = 2.78687e-07, Final residual = 1.53371e-25, No Iterations 1
smoothSolver:  Solving for Ryz, Initial residual = 0.207829, Final residual = 7.59202e-26, No Iterations 1
smoothSolver:  Solving for Rzz, Initial residual = 5.7719e-05, Final residual = 2.66372e-25, No Iterations 1
ExecutionTime = 3104.14 s  ClockTime = 3157 s

Time = 36

smoothSolver:  Solving for Ux, Initial residual = 0.160096, Final residual = 0.00545227, No Iterations 1
smoothSolver:  Solving for Uy, Initial residual = 0.252538, Final residual = 0.00582884, No Iterations 1
smoothSolver:  Solving for Uz, Initial residual = 0.383248, Final residual = 0.0122398, No Iterations 1
GAMG:  Solving for p, Initial residual = 0.00535562, Final residual = 0.000386488, No Iterations 2
GAMG:  Solving for p, Initial residual = 0.00100694, Final residual = 9.98973e-05, No Iterations 43
GAMG:  Solving for p, Initial residual = 0.000330274, Final residual = 3.25865e-05, No Iterations 44
GAMG:  Solving for p, Initial residual = 9.76216e-05, Final residual = 9.65602e-06, No Iterations 61
GAMG:  Solving for p, Initial residual = 3.39068e-05, Final residual = 3.37495e-06, No Iterations 77
GAMG:  Solving for p, Initial residual = 1.2889e-05, Final residual = 1.28815e-06, No Iterations 96
time step continuity errors : sum local = 1.32163e+51, global = 1.91126e+50, cumulative = 2.43584e+51
smoothSolver:  Solving for f, Initial residual = 0.320941, Final residual = 2.8091e-16, No Iterations 1
smoothSolver:  Solving for epsilon, Initial residual = 0.172943, Final residual = 0.00187852, No Iterations 1
bounding epsilon, min: -1.57708e+64 max: 7.0063e+66 average: 3.06961e+60
smoothSolver:  Solving for Rxx, Initial residual = 4.17453e-13, Final residual = 4.17453e-13, No Iterations 0
smoothSolver:  Solving for Rxy, Initial residual = 0.321316, Final residual = 4.70648e-25, No Iterations 1
smoothSolver:  Solving for Rxz, Initial residual = 0.1745, Final residual = 3.83224e-22, No Iterations 1
smoothSolver:  Solving for Ryy, Initial residual = 2.42365e-09, Final residual = 2.42365e-09, No Iterations 0
smoothSolver:  Solving for Ryz, Initial residual = 0.191526, Final residual = 6.04266e-26, No Iterations 1
smoothSolver:  Solving for Rzz, Initial residual = 2.9957e-05, Final residual = 3.80855e-21, No Iterations 1
ExecutionTime = 3177.81 s  ClockTime = 3294 s

Time = 37

smoothSolver:  Solving for Ux, Initial residual = 0.149155, Final residual = 0.00483175, No Iterations 1
smoothSolver:  Solving for Uy, Initial residual = 0.160841, Final residual = 0.00547095, No Iterations 1
smoothSolver:  Solving for Uz, Initial residual = 0.253922, Final residual = 0.0132811, No Iterations 1
GAMG:  Solving for p, Initial residual = 0.0136119, Final residual = 0.000700214, No Iterations 2
GAMG:  Solving for p, Initial residual = 0.0248556, Final residual = 0.00245707, No Iterations 18
GAMG:  Solving for p, Initial residual = 0.00100686, Final residual = 9.83018e-05, No Iterations 45
GAMG:  Solving for p, Initial residual = 0.000314128, Final residual = 3.10649e-05, No Iterations 56
GAMG:  Solving for p, Initial residual = 0.000100828, Final residual = 1.00495e-05, No Iterations 76
GAMG:  Solving for p, Initial residual = 3.6973e-05, Final residual = 3.68181e-06, No Iterations 110
time step continuity errors : sum local = 1.17594e+51, global = 3.99039e+50, cumulative = 2.83488e+51
smoothSolver:  Solving for f, Initial residual = 0.316241, Final residual = 5.55538e-17, No Iterations 1
smoothSolver:  Solving for epsilon, Initial residual = 0.140642, Final residual = 0.00284851, No Iterations 1
bounding epsilon, min: -3.503e+64 max: 7.64844e+66 average: 3.10414e+60
smoothSolver:  Solving for Rxx, Initial residual = 4.95469e-10, Final residual = 4.95469e-10, No Iterations 0
smoothSolver:  Solving for Rxy, Initial residual = 0.321838, Final residual = 2.57325e-24, No Iterations 1
smoothSolver:  Solving for Rxz, Initial residual = 0.320296, Final residual = 5.31346e-17, No Iterations 1
smoothSolver:  Solving for Ryy, Initial residual = 0.00107852, Final residual = 1.12421e-24, No Iterations 1
smoothSolver:  Solving for Ryz, Initial residual = 0.112341, Final residual = 3.16943e-18, No Iterations 1
smoothSolver:  Solving for Rzz, Initial residual = 0.0143006, Final residual = 1.57042e-24, No Iterations 1
ExecutionTime = 3248.33 s  ClockTime = 3440 s

Time = 38

smoothSolver:  Solving for Ux, Initial residual = 0.136245, Final residual = 0.0049007, No Iterations 1
smoothSolver:  Solving for Uy, Initial residual = 0.14377, Final residual = 0.00405511, No Iterations 1
smoothSolver:  Solving for Uz, Initial residual = 0.219837, Final residual = 0.0081854, No Iterations 1
GAMG:  Solving for p, Initial residual = 0.0532327, Final residual = 0.001577, No Iterations 2
GAMG:  Solving for p, Initial residual = 0.00632764, Final residual = 0.000632572, No Iterations 21
GAMG:  Solving for p, Initial residual = 0.000722283, Final residual = 7.1976e-05, No Iterations 52
GAMG:  Solving for p, Initial residual = 0.000248015, Final residual = 2.4742e-05, No Iterations 50
GAMG:  Solving for p, Initial residual = 8.14807e-05, Final residual = 7.99473e-06, No Iterations 85
GAMG:  Solving for p, Initial residual = 3.23413e-05, Final residual = 3.19272e-06, No Iterations 81
time step continuity errors : sum local = 1.6455e+51, global = 5.02518e+50, cumulative = 3.3374e+51
smoothSolver:  Solving for f, Initial residual = 0.308501, Final residual = 2.4879e-17, No Iterations 1
smoothSolver:  Solving for epsilon, Initial residual = 0.148379, Final residual = 0.00385032, No Iterations 1
bounding epsilon, min: -2.33222e+63 max: 6.832e+66 average: 3.53186e+60
smoothSolver:  Solving for Rxx, Initial residual = 9.5583e-14, Final residual = 9.5583e-14, No Iterations 0
smoothSolver:  Solving for Rxy, Initial residual = 0.343969, Final residual = 3.68585e-24, No Iterations 1
smoothSolver:  Solving for Rxz, Initial residual = 0.312888, Final residual = 2.15159e-22, No Iterations 1
smoothSolver:  Solving for Ryy, Initial residual = 0.000234708, Final residual = 6.18331e-24, No Iterations 1
smoothSolver:  Solving for Ryz, Initial residual = 0.147622, Final residual = 1.72242e-24, No Iterations 1
smoothSolver:  Solving for Rzz, Initial residual = 0.0206013, Final residual = 2.12803e-21, No Iterations 1
ExecutionTime = 3316.07 s  ClockTime = 3508 s

Time = 39

smoothSolver:  Solving for Ux, Initial residual = 0.194487, Final residual = 0.0071318, No Iterations 1
smoothSolver:  Solving for Uy, Initial residual = 0.121886, Final residual = 0.00368192, No Iterations 1
smoothSolver:  Solving for Uz, Initial residual = 0.296075, Final residual = 0.0133838, No Iterations 1
GAMG:  Solving for p, Initial residual = 0.0758569, Final residual = 0.00564346, No Iterations 2
GAMG:  Solving for p, Initial residual = 0.00120699, Final residual = 0.000118004, No Iterations 24
GAMG:  Solving for p, Initial residual = 0.000194909, Final residual = 1.92252e-05, No Iterations 56
GAMG:  Solving for p, Initial residual = 7.64252e-05, Final residual = 7.52914e-06, No Iterations 42
GAMG:  Solving for p, Initial residual = 2.45491e-05, Final residual = 2.44856e-06, No Iterations 60
GAMG:  Solving for p, Initial residual = 9.34765e-06, Final residual = 9.2381e-07, No Iterations 65
time step continuity errors : sum local = 2.32748e+51, global = 2.35134e+49, cumulative = 3.36091e+51
smoothSolver:  Solving for f, Initial residual = 0.310239, Final residual = 9.63904e-17, No Iterations 1
smoothSolver:  Solving for epsilon, Initial residual = 0.181998, Final residual = 0.00595037, No Iterations 1
bounding epsilon, min: -2.07924e+65 max: 6.22068e+66 average: 3.75068e+60
smoothSolver:  Solving for Rxx, Initial residual = 8.51805e-13, Final residual = 8.51805e-13, No Iterations 0
smoothSolver:  Solving for Rxy, Initial residual = 0.232037, Final residual = 2.01162e-21, No Iterations 1
smoothSolver:  Solving for Rxz, Initial residual = 0.00416037, Final residual = 1.71589e-20, No Iterations 1
smoothSolver:  Solving for Ryy, Initial residual = 1.65644e-08, Final residual = 1.45255e-21, No Iterations 1
smoothSolver:  Solving for Ryz, Initial residual = 0.214237, Final residual = 5.84977e-22, No Iterations 1
smoothSolver:  Solving for Rzz, Initial residual = 0.0136983, Final residual = 2.96083e-18, No Iterations 1
ExecutionTime = 3376.13 s  ClockTime = 3568 s

Time = 40

smoothSolver:  Solving for Ux, Initial residual = 0.188125, Final residual = 0.0046305, No Iterations 1
smoothSolver:  Solving for Uy, Initial residual = 0.120972, Final residual = 0.0038445, No Iterations 1
smoothSolver:  Solving for Uz, Initial residual = 0.300269, Final residual = 0.00476724, No Iterations 1
GAMG:  Solving for p, Initial residual = 0.00463356, Final residual = 0.000435639, No Iterations 2
GAMG:  Solving for p, Initial residual = 0.000176192, Final residual = 1.74121e-05, No Iterations 26
GAMG:  Solving for p, Initial residual = 2.48428e-05, Final residual = 2.45387e-06, No Iterations 66
GAMG:  Solving for p, Initial residual = 1.0729e-05, Final residual = 1.05253e-06, No Iterations 42
GAMG:  Solving for p, Initial residual = 3.31263e-06, Final residual = 3.26801e-07, No Iterations 64
[...]
smoothSolver:  Solving for epsilon, Initial residual = 0.0873287, Final residual = 0.00259307, No Iterations 1
bounding epsilon, min: -1.28327e+66 max: 6.8607e+67 average: 3.08326e+62
smoothSolver:  Solving for Rxx, Initial residual = 3.22825e-15, Final residual = 3.22825e-15, No Iterations 0
smoothSolver:  Solving for Rxy, Initial residual = 0.212311, Final residual = 6.33033e-34, No Iterations 1
smoothSolver:  Solving for Rxz, Initial residual = 6.60793e-09, Final residual = 6.60793e-09, No Iterations 0
smoothSolver:  Solving for Ryy, Initial residual = 5.56631e-19, Final residual = 5.56631e-19, No Iterations 0
smoothSolver:  Solving for Ryz, Initial residual = 0.00620104, Final residual = 9.45816e-33, No Iterations 1
smoothSolver:  Solving for Rzz, Initial residual = 8.3678e-14, Final residual = 8.3678e-14, No Iterations 0
ExecutionTime = 8031.1 s  ClockTime = 8225 s

Time = 116

smoothSolver:  Solving for Ux, Initial residual = 0.0468223, Final residual = 0.00191645, No Iterations 1
smoothSolver:  Solving for Uy, Initial residual = 0.0508209, Final residual = 0.00180287, No Iterations 1
smoothSolver:  Solving for Uz, Initial residual = 0.0408178, Final residual = 0.0017027, No Iterations 1
GAMG:  Solving for p, Initial residual = 0.00153131, Final residual = 0.000101747, No Iterations 2
GAMG:  Solving for p, Initial residual = 0.000186186, Final residual = 1.81892e-05, No Iterations 31
GAMG:  Solving for p, Initial residual = 6.49431e-05, Final residual = 6.41969e-06, No Iterations 37
GAMG:  Solving for p, Initial residual = 2.61101e-05, Final residual = 2.60891e-06, No Iterations 40
GAMG:  Solving for p, Initial residual = 1.22372e-05, Final residual = 1.21817e-06, No Iterations 39
GAMG:  Solving for p, Initial residual = 6.06549e-06, Final residual = 6.0498e-07, No Iterations 39
time step continuity errors : sum local = 2.08946e+51, global = -3.41824e+48, cumulative = 3.07045e+51
smoothSolver:  Solving for f, Initial residual = 0.0106437, Final residual = 5.97814e-19, No Iterations 1
smoothSolver:  Solving for epsilon, Initial residual = 0.0868712, Final residual = 0.00309398, No Iterations 1
bounding epsilon, min: -1.24874e+66 max: 3.69093e+67 average: 3.02379e+62
smoothSolver:  Solving for Rxx, Initial residual = 6.39789e-15, Final residual = 6.39789e-15, No Iterations 0
smoothSolver:  Solving for Rxy, Initial residual = 0.0835934, Final residual = 6.44126e-34, No Iterations 1
smoothSolver:  Solving for Rxz, Initial residual = 1.23193e-08, Final residual = 1.15672e-30, No Iterations 1
smoothSolver:  Solving for Ryy, Initial residual = 5.78884e-19, Final residual = 5.78884e-19, No Iterations 0
smoothSolver:  Solving for Ryz, Initial residual = 0.0029373, Final residual = 1.75596e-32, No Iterations 1
smoothSolver:  Solving for Rzz, Initial residual = 8.2532e-14, Final residual = 8.2532e-14, No Iterations 0
ExecutionTime = 8079.77 s  ClockTime = 8274 s

Time = 117

smoothSolver:  Solving for Ux, Initial residual = 0.0464812, Final residual = 0.00188566, No Iterations 1
smoothSolver:  Solving for Uy, Initial residual = 0.0506867, Final residual = 0.00177838, No Iterations 1
smoothSolver:  Solving for Uz, Initial residual = 0.041002, Final residual = 0.00167112, No Iterations 1
GAMG:  Solving for p, Initial residual = 0.00133911, Final residual = 9.01932e-05, No Iterations 2
GAMG:  Solving for p, Initial residual = 0.000163069, Final residual = 1.60023e-05, No Iterations 31
GAMG:  Solving for p, Initial residual = 5.709e-05, Final residual = 5.67868e-06, No Iterations 37
GAMG:  Solving for p, Initial residual = 2.30762e-05, Final residual = 2.26177e-06, No Iterations 42
GAMG:  Solving for p, Initial residual = 1.08155e-05, Final residual = 1.08041e-06, No Iterations 39
GAMG:  Solving for p, Initial residual = 5.32474e-06, Final residual = 5.29406e-07, No Iterations 41
time step continuity errors : sum local = 2.06373e+51, global = 1.18758e+49, cumulative = 3.08233e+51
smoothSolver:  Solving for f, Initial residual = 0.00689345, Final residual = 3.11443e-19, No Iterations 1
smoothSolver:  Solving for epsilon, Initial residual = 0.0807758, Final residual = 0.0025475, No Iterations 1
bounding epsilon, min: -1.0053e+66 max: 4.23473e+67 average: 3.01318e+62
smoothSolver:  Solving for Rxx, Initial residual = 1.05919e-14, Final residual = 1.05919e-14, No Iterations 0
smoothSolver:  Solving for Rxy, Initial residual = 0.0329397, Final residual = 5.81955e-34, No Iterations 1
smoothSolver:  Solving for Rxz, Initial residual = 6.59261e-09, Final residual = 6.59261e-09, No Iterations 0
smoothSolver:  Solving for Ryy, Initial residual = 3.16725e-19, Final residual = 3.16725e-19, No Iterations 0
smoothSolver:  Solving for Ryz, Initial residual = 0.000577496, Final residual = 6.32731e-35, No Iterations 1
smoothSolver:  Solving for Rzz, Initial residual = 4.06264e-14, Final residual = 4.06264e-14, No Iterations 0
ExecutionTime = 8129.1 s  ClockTime = 8323 s

Time = 118

smoothSolver:  Solving for Ux, Initial residual = 0.0457701, Final residual = 0.00187345, No Iterations 1
smoothSolver:  Solving for Uy, Initial residual = 0.050308, Final residual = 0.00175724, No Iterations 1
smoothSolver:  Solving for Uz, Initial residual = 0.040272, Final residual = 0.00162546, No Iterations 1
GAMG:  Solving for p, Initial residual = 0.00128462, Final residual = 8.71843e-05, No Iterations 2
GAMG:  Solving for p, Initial residual = 0.000156622, Final residual = 1.54105e-05, No Iterations 31
GAMG:  Solving for p, Initial residual = 5.53702e-05, Final residual = 5.50499e-06, No Iterations 37
GAMG:  Solving for p, Initial residual = 2.23969e-05, Final residual = 2.20362e-06, No Iterations 42
GAMG:  Solving for p, Initial residual = 1.05381e-05, Final residual = 1.04844e-06, No Iterations 39
GAMG:  Solving for p, Initial residual = 5.19278e-06, Final residual = 5.15854e-07, No Iterations 41
time step continuity errors : sum local = 2.06787e+51, global = 8.49381e+47, cumulative = 3.08318e+51
smoothSolver:  Solving for f, Initial residual = 0.00669464, Final residual = 5.8748e-19, No Iterations 1
smoothSolver:  Solving for epsilon, Initial residual = 0.0748355, Final residual = 0.00224361, No Iterations 1
bounding epsilon, min: -8.71411e+65 max: 4.31433e+67 average: 3.00186e+62
smoothSolver:  Solving for Rxx, Initial residual = 1.80109e-14, Final residual = 1.80109e-14, No Iterations 0
smoothSolver:  Solving for Rxy, Initial residual = 0.022235, Final residual = 1.26591e-33, No Iterations 1
smoothSolver:  Solving for Rxz, Initial residual = 1.08454e-08, Final residual = 1.24257e-32, No Iterations 1
smoothSolver:  Solving for Ryy, Initial residual = 3.86654e-19, Final residual = 3.86654e-19, No Iterations 0
smoothSolver:  Solving for Ryz, Initial residual = 0.0004144, Final residual = 9.31248e-35, No Iterations 1
smoothSolver:  Solving for Rzz, Initial residual = 4.01517e-14, Final residual = 4.01517e-14, No Iterations 0
ExecutionTime = 8178.52 s  ClockTime = 8373 s

Time = 119

smoothSolver:  Solving for Ux, Initial residual = 0.0454201, Final residual = 0.0017891, No Iterations 1
smoothSolver:  Solving for Uy, Initial residual = 0.0501534, Final residual = 0.00174391, No Iterations 1
smoothSolver:  Solving for Uz, Initial residual = 0.0406508, Final residual = 0.0016237, No Iterations 1
GAMG:  Solving for p, Initial residual = 0.0010302, Final residual = 6.98139e-05, No Iterations 2
GAMG:  Solving for p, Initial residual = 0.000127155, Final residual = 1.23855e-05, No Iterations 31
GAMG:  Solving for p, Initial residual = 4.56357e-05, Final residual = 4.49733e-06, No Iterations 36
GAMG:  Solving for p, Initial residual = 1.85113e-05, Final residual = 1.83436e-06, No Iterations 40
GAMG:  Solving for p, Initial residual = 8.73379e-06, Final residual = 8.57677e-07, No Iterations 39
GAMG:  Solving for p, Initial residual = 4.33219e-06, Final residual = 4.32591e-07, No Iterations 39
time step continuity errors : sum local = 2.12402e+51, global = 1.78735e+48, cumulative = 3.08497e+51
smoothSolver:  Solving for f, Initial residual = 0.00887158, Final residual = 1.6325e-17, No Iterations 1
smoothSolver:  Solving for epsilon, Initial residual = 0.0723066, Final residual = 0.00222583, No Iterations 1
bounding epsilon, min: -7.91518e+65 max: 3.95136e+67 average: 2.94771e+62
smoothSolver:  Solving for Rxx, Initial residual = 2.91586e-14, Final residual = 2.91586e-14, No Iterations 0
smoothSolver:  Solving for Rxy, Initial residual = 0.0164325, Final residual = 3.37243e-33, No Iterations 1
smoothSolver:  Solving for Rxz, Initial residual = 6.05561e-09, Final residual = 6.05561e-09, No Iterations 0
smoothSolver:  Solving for Ryy, Initial residual = 2.23857e-19, Final residual = 2.23857e-19, No Iterations 0
smoothSolver:  Solving for Ryz, Initial residual = 0.000315046, Final residual = 5.38396e-33, No Iterations 1
smoothSolver:  Solving for Rzz, Initial residual = 1.99375e-14, Final residual = 1.99375e-14, No Iterations 0
ExecutionTime = 8226.94 s  ClockTime = 8421 s

Time = 120

smoothSolver:  Solving for Ux, Initial residual = 0.0437636, Final residual = 0.0017309, No Iterations 1
smoothSolver:  Solving for Uy, Initial residual = 0.0495051, Final residual = 0.00172819, No Iterations 1
smoothSolver:  Solving for Uz, Initial residual = 0.0403361, Final residual = 0.00161313, No Iterations 1
GAMG:  Solving for p, Initial residual = 0.000983675, Final residual = 6.67493e-05, No Iterations 2
GAMG:  Solving for p, Initial residual = 0.000122249, Final residual = 1.20648e-05, No Iterations 31
GAMG:  Solving for p, Initial residual = 4.48949e-05, Final residual = 4.43755e-06, No Iterations 37
GAMG:  Solving for p, Initial residual = 1.84319e-05, Final residual = 1.83891e-06, No Iterations 40
GAMG:  Solving for p, Initial residual = 8.7156e-06, Final residual = 8.56553e-07, No Iterations 39
GAMG:  Solving for p, Initial residual = 4.33428e-06, Final residual = 4.2797e-07, No Iterations 39
time step continuity errors : sum local = 2.15067e+51, global = 2.63994e+48, cumulative = 3.08761e+51
smoothSolver:  Solving for f, Initial residual = 0.00775591, Final residual = 1.19902e-17, No Iterations 1
smoothSolver:  Solving for epsilon, Initial residual = 0.0695312, Final residual = 0.00212548, No Iterations 1
bounding epsilon, min: -1.20991e+66 max: 3.40538e+67 average: 2.8894e+62
smoothSolver:  Solving for Rxx, Initial residual = 4.62786e-14, Final residual = 4.62786e-14, No Iterations 0
smoothSolver:  Solving for Rxy, Initial residual = 0.0126106, Final residual = 9.40549e-33, No Iterations 1
smoothSolver:  Solving for Rxz, Initial residual = 1.08818e-08, Final residual = 6.9062e-32, No Iterations 1
smoothSolver:  Solving for Ryy, Initial residual = 2.75438e-19, Final residual = 2.75438e-19, No Iterations 0
smoothSolver:  Solving for Ryz, Initial residual = 0.000244461, Final residual = 1.90509e-33, No Iterations 1
smoothSolver:  Solving for Rzz, Initial residual = 1.99046e-14, Final residual = 1.99046e-14, No Iterations 0
ExecutionTime = 8280.73 s  ClockTime = 8475 s

Time = 121

smoothSolver:  Solving for Ux, Initial residual = 0.042827, Final residual = 0.00166704, No Iterations 1
smoothSolver:  Solving for Uy, Initial residual = 0.0490424, Final residual = 0.00169248, No Iterations 1
smoothSolver:  Solving for Uz, Initial residual = 0.0407913, Final residual = 0.00162733, No Iterations 1
GAMG:  Solving for p, Initial residual = 0.000924684, Final residual = 6.173e-05, No Iterations 2
GAMG:  Solving for p, Initial residual = 0.000114658, Final residual = 1.13882e-05, No Iterations 30
GAMG:  Solving for p, Initial residual = 4.33006e-05, Final residual = 4.22651e-06, No Iterations 36
GAMG:  Solving for p, Initial residual = 1.78993e-05, Final residual = 1.77363e-06, No Iterations 38
GAMG:  Solving for p, Initial residual = 8.46692e-06, Final residual = 8.45584e-07, No Iterations 37
GAMG:  Solving for p, Initial residual = 4.22915e-06, Final residual = 4.16685e-07, No Iterations 40
time step continuity errors : sum local = 2.18143e+51, global = 4.82079e+48, cumulative = 3.09243e+51
smoothSolver:  Solving for f, Initial residual = 0.00191336, Final residual = 1.63611e-16, No Iterations 1
smoothSolver:  Solving for epsilon, Initial residual = 0.0683407, Final residual = 0.00209813, No Iterations 1
bounding epsilon, min: -6.65549e+65 max: 3.79222e+67 average: 2.80084e+62
smoothSolver:  Solving for Rxx, Initial residual = 7.46755e-14, Final residual = 7.46755e-14, No Iterations 0
smoothSolver:  Solving for Rxy, Initial residual = 0.00896383, Final residual = 3.05263e-32, No Iterations 1
smoothSolver:  Solving for Rxz, Initial residual = 5.3975e-09, Final residual = 5.3975e-09, No Iterations 0
smoothSolver:  Solving for Ryy, Initial residual = 1.96875e-19, Final residual = 1.96875e-19, No Iterations 0
smoothSolver:  Solving for Ryz, Initial residual = 0.000190029, Final residual = 4.1142e-29, No Iterations 1
smoothSolver:  Solving for Rzz, Initial residual = 1.00209e-14, Final residual = 1.00209e-14, No Iterations 0
ExecutionTime = 8328.48 s  ClockTime = 8523 s

Time = 122

smoothSolver:  Solving for Ux, Initial residual = 0.0411936, Final residual = 0.00162173, No Iterations 1
smoothSolver:  Solving for Uy, Initial residual = 0.0482904, Final residual = 0.00167414, No Iterations 1
smoothSolver:  Solving for Uz, Initial residual = 0.0400263, Final residual = 0.00161748, No Iterations 1
GAMG:  Solving for p, Initial residual = 0.000797972, Final residual = 5.31854e-05, No Iterations 2
GAMG:  Solving for p, Initial residual = 9.79776e-05, Final residual = 9.57645e-06, No Iterations 31
GAMG:  Solving for p, Initial residual = 3.68449e-05, Final residual = 3.62598e-06, No Iterations 36
GAMG:  Solving for p, Initial residual = 1.5278e-05, Final residual = 1.51352e-06, No Iterations 38
GAMG:  Solving for p, Initial residual = 7.27289e-06, Final residual = 7.18621e-07, No Iterations 36
GAMG:  Solving for p, Initial residual = 3.62332e-06, Final residual = 3.61187e-07, No Iterations 37
time step continuity errors : sum local = 2.1513e+51, global = 1.27789e+49, cumulative = 3.10521e+51
smoothSolver:  Solving for f, Initial residual = 9.57248e-05, Final residual = 9.91959e-19, No Iterations 1
smoothSolver:  Solving for epsilon, Initial residual = 0.0663853, Final residual = 0.00191391, No Iterations 1
bounding epsilon, min: -6.18445e+65 max: 3.99462e+67 average: 2.70607e+62
smoothSolver:  Solving for Rxx, Initial residual = 1.36457e-13, Final residual = 1.36457e-13, No Iterations 0
smoothSolver:  Solving for Rxy, Initial residual = 0.0057988, Final residual = 1.06349e-31, No Iterations 1
smoothSolver:  Solving for Rxz, Initial residual = 9.30827e-09, Final residual = 9.30827e-09, No Iterations 0
smoothSolver:  Solving for Ryy, Initial residual = 2.88725e-19, Final residual = 2.88725e-19, No Iterations 0
smoothSolver:  Solving for Ryz, Initial residual = 0.000129184, Final residual = 8.93501e-32, No Iterations 1
smoothSolver:  Solving for Rzz, Initial residual = 1.01208e-14, Final residual = 1.01208e-14, No Iterations 0
ExecutionTime = 8375.6 s  ClockTime = 8570 s

Time = 123

smoothSolver:  Solving for Ux, Initial residual = 0.0409505, Final residual = 0.00157943, No Iterations 1
smoothSolver:  Solving for Uy, Initial residual = 0.0476681, Final residual = 0.00163699, No Iterations 1
smoothSolver:  Solving for Uz, Initial residual = 0.0402533, Final residual = 0.00161118, No Iterations 1
GAMG:  Solving for p, Initial residual = 0.00070013, Final residual = 4.69628e-05, No Iterations 2
GAMG:  Solving for p, Initial residual = 8.59195e-05, Final residual = 8.40294e-06, No Iterations 31
GAMG:  Solving for p, Initial residual = 3.31928e-05, Final residual = 3.28634e-06, No Iterations 34
GAMG:  Solving for p, Initial residual = 1.36903e-05, Final residual = 1.34559e-06, No Iterations 37
GAMG:  Solving for p, Initial residual = 6.47574e-06, Final residual = 6.39531e-07, No Iterations 35
GAMG:  Solving for p, Initial residual = 3.21288e-06, Final residual = 3.21245e-07, No Iterations 37
time step continuity errors : sum local = 2.05149e+51, global = 1.40781e+49, cumulative = 3.11928e+51
smoothSolver:  Solving for f, Initial residual = 0.00374309, Final residual = 1.4068e-19, No Iterations 1
smoothSolver:  Solving for epsilon, Initial residual = 0.0650308, Final residual = 0.00196778, No Iterations 1
bounding epsilon, min: -5.78218e+65 max: 3.98803e+67 average: 2.5961e+62
smoothSolver:  Solving for Rxx, Initial residual = 1.7562e-13, Final residual = 1.7562e-13, No Iterations 0
smoothSolver:  Solving for Rxy, Initial residual = 0.00373101, Final residual = 2.30183e-31, No Iterations 1
smoothSolver:  Solving for Rxz, Initial residual = 7.87467e-09, Final residual = 7.87467e-09, No Iterations 0
smoothSolver:  Solving for Ryy, Initial residual = 2.70286e-19, Final residual = 2.70286e-19, No Iterations 0
smoothSolver:  Solving for Ryz, Initial residual = 8.87352e-05, Final residual = 4.22453e-28, No Iterations 1
smoothSolver:  Solving for Rzz, Initial residual = 9.69815e-15, Final residual = 9.69815e-15, No Iterations 0
ExecutionTime = 8421.98 s  ClockTime = 8616 s

Time = 124

smoothSolver:  Solving for Ux, Initial residual = 0.0398991, Final residual = 0.00153209, No Iterations 1
smoothSolver:  Solving for Uy, Initial residual = 0.0470843, Final residual = 0.00160997, No Iterations 1
smoothSolver:  Solving for Uz, Initial residual = 0.0399428, Final residual = 0.00161918, No Iterations 1
GAMG:  Solving for p, Initial residual = 0.000829784, Final residual = 5.61788e-05, No Iterations 2
GAMG:  Solving for p, Initial residual = 0.000101805, Final residual = 9.95065e-06, No Iterations 32
GAMG:  Solving for p, Initial residual = 4.05507e-05, Final residual = 3.9487e-06, No Iterations 34
GAMG:  Solving for p, Initial residual = 1.66499e-05, Final residual = 1.64574e-06, No Iterations 37
GAMG:  Solving for p, Initial residual = 7.84172e-06, Final residual = 7.8236e-07, No Iterations 36
GAMG:  Solving for p, Initial residual = 3.88434e-06, Final residual = 3.86337e-07, No Iterations 39
time step continuity errors : sum local = 1.94572e+51, global = 5.41224e+48, cumulative = 3.1247e+51
smoothSolver:  Solving for f, Initial residual = 0.0052031, Final residual = 6.04995e-20, No Iterations 1
smoothSolver:  Solving for epsilon, Initial residual = 0.0627248, Final residual = 0.00181106, No Iterations 1
bounding epsilon, min: -7.58266e+65 max: 3.78338e+67 average: 2.48502e+62
smoothSolver:  Solving for Rxx, Initial residual = 2.23991e-13, Final residual = 2.23991e-13, No Iterations 0
smoothSolver:  Solving for Rxy, Initial residual = 0.00230543, Final residual = 3.27411e-31, No Iterations 1
smoothSolver:  Solving for Rxz, Initial residual = 6.18932e-09, Final residual = 6.18932e-09, No Iterations 0
smoothSolver:  Solving for Ryy, Initial residual = 1.76816e-19, Final residual = 1.76816e-19, No Iterations 0
smoothSolver:  Solving for Ryz, Initial residual = 5.53648e-05, Final residual = 2.78346e-30, No Iterations 1
smoothSolver:  Solving for Rzz, Initial residual = 9.12414e-15, Final residual = 9.12414e-15, No Iterations 0
ExecutionTime = 8469.11 s  ClockTime = 8663 s

Time = 125

smoothSolver:  Solving for Ux, Initial residual = 0.0388032, Final residual = 0.00149126, No Iterations 1
smoothSolver:  Solving for Uy, Initial residual = 0.0461869, Final residual = 0.00158132, No Iterations 1
smoothSolver:  Solving for Uz, Initial residual = 0.0394653, Final residual = 0.00157379, No Iterations 1
GAMG:  Solving for p, Initial residual = 0.000941922, Final residual = 6.47625e-05, No Iterations 2
GAMG:  Solving for p, Initial residual = 0.000115392, Final residual = 1.14272e-05, No Iterations 32
GAMG:  Solving for p, Initial residual = 4.80805e-05, Final residual = 4.79363e-06, No Iterations 32
GAMG:  Solving for p, Initial residual = 1.95321e-05, Final residual = 1.94845e-06, No Iterations 39
GAMG:  Solving for p, Initial residual = 9.2937e-06, Final residual = 9.26231e-07, No Iterations 38
